
**** 09/23/15 10:07:21 ***** PSpice 16.6.0 (October 2012) ***** ID# 0 ********

 ** Profile: "Control-Temp"  [ C:\Documents and Settings\EGA\Escritorio\convertidor ac-dc-pspicefiles\control\temp.sim ] 


 ****     CIRCUIT DESCRIPTION


******************************************************************************




** Creating circuit file "Temp.cir" 
** WARNING: THIS AUTOMATICALLY GENERATED FILE MAY BE OVERWRITTEN BY SUBSEQUENT SIMULATIONS

*Libraries: 
* Profile Libraries :
* Local Libraries :
.LIB "E:/Hardware/OrCAD/Capture/PSpice/burr_brn.lib" 
* From [PSPICE NETLIST] section of E:\zOrCAD\cdssetup\OrCAD_PSpice/16.6.0/PSpice.ini file:
.lib "nom.lib" 

*Analysis directives: 
.TRAN  0 80ms 0 .02ms 
.OPTIONS ADVCONV
.PROBE64 V(alias(*)) I(alias(*)) W(alias(*)) D(alias(*)) NOISE(alias(*)) 
.INC "..\Control.net" 



**** INCLUDING Control.net ****
* source CONVERTIDOR AC-DC
X_U17         E_SQR 0 /VALFA_N 0 -VCC_CON -50MV N16288 +VCC_CON AD633/AD
R_R31         VALFA N15996  15k  
R_R32         N15996 N16288  3.0k  
X_U16         0 N15996 +VCC_CON -VCC_CON /VALFA_N OPA350
X_U13         0 VALFA VALFA 0 -VCC_CON 0 VALFA_SQR +VCC_CON AD633/AD
X_U15         0 VBETA VBETA 0 -VCC_CON 0 VBETA_SQR +VCC_CON AD633/AD
X_U14         0 N14775 +VCC_CON -VCC_CON E_SQR OPA350
R_R74         N14775 E_SQR  10k  
R_R75         VALFA_SQR N14775  10k  
R_R76         VBETA_SQR N14775  10k  
R_R36         VBETA N17409  15k  
R_R37         N17409 N17437  3.0k  
X_U18         0 N17409 +VCC_CON -VCC_CON /VBETA_N OPA350
X_U19         E_SQR 0 /VBETA_N 0 -VCC_CON 0 N17437 +VCC_CON AD633/AD
X_U21         0 /VBETA_N N18560 0 -VCC_CON 0 IBETA_REF +VCC_CON AD633/AD
X_U20         0 /VALFA_N N18560 0 -VCC_CON 0 IALFA_REF +VCC_CON AD633/AD
R_R1         N18640 N18560  10k  
R_R2         N18560 0  20k  
V_Valfa         VALFA 0  
+SIN 0 4.72Vp 50Hz 0 0 0
V_Vbeta         VBETA 0  
+SIN 0 4.72Vp 50Hz 0 0 -90
V_V5         0 -VCC_CON 15V
V_V4         +VCC_CON 0 15V
R_R1003         0 IBETA_REF  1MEG  
R_R1002         0 IALFA_REF  1MEG  
V_V7         N18640 0  
+PULSE -10V +10V 20ms 20ms 20ms 20ms 80ms
R_R1004         -50MV -VCC_CON  299k  
R_R1005         0 -50MV  1k  

**** RESUMING Temp.cir ****
.END

**** 09/23/15 10:07:21 ***** PSpice 16.6.0 (October 2012) ***** ID# 0 ********

 ** Profile: "Control-Temp"  [ C:\Documents and Settings\EGA\Escritorio\convertidor ac-dc-pspicefiles\control\temp.sim ] 


 ****     Diode MODEL PARAMETERS


******************************************************************************




               X_U17.DX        X_U16.dx        X_U13.DX        X_U15.DX        
          IS    1.000000E-15   10.000000E-15    1.000000E-15    1.000000E-15 
          RS                    1                                            
         CJO                  100.000000E-15                                 


               X_U14.dx        X_U18.dx        X_U19.DX        X_U21.DX        
          IS   10.000000E-15   10.000000E-15    1.000000E-15    1.000000E-15 
          RS    1               1                                            
         CJO  100.000000E-15  100.000000E-15                                 


               X_U20.DX        
          IS    1.000000E-15 


**** 09/23/15 10:07:21 ***** PSpice 16.6.0 (October 2012) ***** ID# 0 ********

 ** Profile: "Control-Temp"  [ C:\Documents and Settings\EGA\Escritorio\convertidor ac-dc-pspicefiles\control\temp.sim ] 


 ****     BJT MODEL PARAMETERS


******************************************************************************




               X_U17.QX        X_U13.QX        X_U15.QX        X_U19.QX        
               NPN             NPN             NPN             NPN             
       LEVEL    1               1               1               1            
          IS  100.000000E-18  100.000000E-18  100.000000E-18  100.000000E-18 
          BF   10.000000E+03   10.000000E+03   10.000000E+03   10.000000E+03 
          NF    1               1               1               1            
          BR    1               1               1               1            
          NR    1               1               1               1            
         ISS    0               0               0               0            
          RE    0               0               0               0            
          RC    0               0               0               0            
         CJE    0               0               0               0            
         VJE     .75             .75             .75             .75         
         CJC    0               0               0               0            
         VJC     .75             .75             .75             .75         
         MJC     .33             .33             .33             .33         
        XCJC    1               1               1               1            
         CJS    0               0               0               0            
         VJS     .75             .75             .75             .75         
          KF    0               0               0               0            
          AF    1               1               1               1            
          CN    2.42            2.42            2.42            2.42         
           D     .87             .87             .87             .87         


               X_U21.QX        X_U20.QX        
               NPN             NPN             
       LEVEL    1               1            
          IS  100.000000E-18  100.000000E-18 
          BF   10.000000E+03   10.000000E+03 
          NF    1               1            
          BR    1               1            
          NR    1               1            
         ISS    0               0            
          RE    0               0            
          RC    0               0            
         CJE    0               0            
         VJE     .75             .75         
         CJC    0               0            
         VJC     .75             .75         
         MJC     .33             .33         
        XCJC    1               1            
         CJS    0               0            
         VJS     .75             .75         
          KF    0               0            
          AF    1               1            
          CN    2.42            2.42         
           D     .87             .87         


**** 09/23/15 10:07:21 ***** PSpice 16.6.0 (October 2012) ***** ID# 0 ********

 ** Profile: "Control-Temp"  [ C:\Documents and Settings\EGA\Escritorio\convertidor ac-dc-pspicefiles\control\temp.sim ] 


 ****     MOSFET MODEL PARAMETERS


******************************************************************************




               X_U16.nix       X_U16.nox       X_U16.pix       X_U16.pox       
               NMOS            NMOS            PMOS            PMOS            
       LEVEL    1               1               1               1            
           L  100.000000E-06  100.000000E-06  100.000000E-06  100.000000E-06 
           W  100.000000E-06  100.000000E-06  100.000000E-06  100.000000E-06 
         VTO     .75             .75            -.75            -.75         
          KP  205.500000E-06  195.000000E-06  205.500000E-06  195.000000E-06 
       GAMMA    0               0               0               0            
         PHI     .6              .6              .6              .6          
      LAMBDA    0               0               0               0            
          RD    1                .5             1                .5          
          RS    1                .5             1                .5          
          RG    1               1               1               1            
          RB    1               1               1               1            
          IS   10.000000E-15   10.000000E-15   10.000000E-15   10.000000E-15 
          JS    0               0               0               0            
          PB     .8              .8              .8              .8          
        PBSW     .8              .8              .8              .8          
         CBD  234.000000E-15  234.000000E-15  234.000000E-15  234.000000E-15 
         CBS  234.000000E-15  234.000000E-15  234.000000E-15  234.000000E-15 
          CJ    0               0               0               0            
        CJSW    0               0               0               0            
        CGSO    4.000000E-09   66.667000E-12    4.000000E-09   66.667000E-12 
        CGDO    4.000000E-09   66.667000E-12    4.000000E-09   66.667000E-12 
        CGBO   16.667000E-09  125.000000E-09   16.667000E-09  125.000000E-09 
         TOX    0               0               0               0            
          XJ    0               0               0               0            
       UCRIT   10.000000E+03   10.000000E+03   10.000000E+03   10.000000E+03 
      DIOMOD    1               1               1               1            
         VFB    0               0               0               0            
        LETA    0               0               0               0            
        WETA    0               0               0               0            
          U0    0               0               0               0            
        TEMP    0               0               0               0            
         VDD    5               5               5               5            
       XPART    0               0               0               0            


               X_U14.nix       X_U14.nox       X_U14.pix       X_U14.pox       
               NMOS            NMOS            PMOS            PMOS            
       LEVEL    1               1               1               1            
           L  100.000000E-06  100.000000E-06  100.000000E-06  100.000000E-06 
           W  100.000000E-06  100.000000E-06  100.000000E-06  100.000000E-06 
         VTO     .75             .75            -.75            -.75         
          KP  205.500000E-06  195.000000E-06  205.500000E-06  195.000000E-06 
       GAMMA    0               0               0               0            
         PHI     .6              .6              .6              .6          
      LAMBDA    0               0               0               0            
          RD    1                .5             1                .5          
          RS    1                .5             1                .5          
          RG    1               1               1               1            
          RB    1               1               1               1            
          IS   10.000000E-15   10.000000E-15   10.000000E-15   10.000000E-15 
          JS    0               0               0               0            
          PB     .8              .8              .8              .8          
        PBSW     .8              .8              .8              .8          
         CBD  234.000000E-15  234.000000E-15  234.000000E-15  234.000000E-15 
         CBS  234.000000E-15  234.000000E-15  234.000000E-15  234.000000E-15 
          CJ    0               0               0               0            
        CJSW    0               0               0               0            
        CGSO    4.000000E-09   66.667000E-12    4.000000E-09   66.667000E-12 
        CGDO    4.000000E-09   66.667000E-12    4.000000E-09   66.667000E-12 
        CGBO   16.667000E-09  125.000000E-09   16.667000E-09  125.000000E-09 
         TOX    0               0               0               0            
          XJ    0               0               0               0            
       UCRIT   10.000000E+03   10.000000E+03   10.000000E+03   10.000000E+03 
      DIOMOD    1               1               1               1            
         VFB    0               0               0               0            
        LETA    0               0               0               0            
        WETA    0               0               0               0            
          U0    0               0               0               0            
        TEMP    0               0               0               0            
         VDD    5               5               5               5            
       XPART    0               0               0               0            


               X_U18.nix       X_U18.nox       X_U18.pix       X_U18.pox       
               NMOS            NMOS            PMOS            PMOS            
       LEVEL    1               1               1               1            
           L  100.000000E-06  100.000000E-06  100.000000E-06  100.000000E-06 
           W  100.000000E-06  100.000000E-06  100.000000E-06  100.000000E-06 
         VTO     .75             .75            -.75            -.75         
          KP  205.500000E-06  195.000000E-06  205.500000E-06  195.000000E-06 
       GAMMA    0               0               0               0            
         PHI     .6              .6              .6              .6          
      LAMBDA    0               0               0               0            
          RD    1                .5             1                .5          
          RS    1                .5             1                .5          
          RG    1               1               1               1            
          RB    1               1               1               1            
          IS   10.000000E-15   10.000000E-15   10.000000E-15   10.000000E-15 
          JS    0               0               0               0            
          PB     .8              .8              .8              .8          
        PBSW     .8              .8              .8              .8          
         CBD  234.000000E-15  234.000000E-15  234.000000E-15  234.000000E-15 
         CBS  234.000000E-15  234.000000E-15  234.000000E-15  234.000000E-15 
          CJ    0               0               0               0            
        CJSW    0               0               0               0            
        CGSO    4.000000E-09   66.667000E-12    4.000000E-09   66.667000E-12 
        CGDO    4.000000E-09   66.667000E-12    4.000000E-09   66.667000E-12 
        CGBO   16.667000E-09  125.000000E-09   16.667000E-09  125.000000E-09 
         TOX    0               0               0               0            
          XJ    0               0               0               0            
       UCRIT   10.000000E+03   10.000000E+03   10.000000E+03   10.000000E+03 
      DIOMOD    1               1               1               1            
         VFB    0               0               0               0            
        LETA    0               0               0               0            
        WETA    0               0               0               0            
          U0    0               0               0               0            
        TEMP    0               0               0               0            
         VDD    5               5               5               5            
       XPART    0               0               0               0            


**** 09/23/15 10:07:21 ***** PSpice 16.6.0 (October 2012) ***** ID# 0 ********

 ** Profile: "Control-Temp"  [ C:\Documents and Settings\EGA\Escritorio\convertidor ac-dc-pspicefiles\control\temp.sim ] 


 ****     INITIAL TRANSIENT SOLUTION       TEMPERATURE =   27.000 DEG C


******************************************************************************



 NODE   VOLTAGE     NODE   VOLTAGE     NODE   VOLTAGE     NODE   VOLTAGE


(-50MV)    -.0508  (E_SQR)    2.2171  (VALFA)    0.0000  (VBETA)   -4.7200      

(N14775)-206.4E-09 (N15996)-438.9E-12 (N16288) 973.4E-12 (N17409)-1.171E-09     

(N17437)     .9440 (N18560)   -6.6684 (N18640)  -10.0000 (X_U14.4)   17.0000    

(X_U14.5)     .8595                   (X_U14.7)    0.0000                       

(X_U14.8)  -16.0330                   (X_U14.9)  -16.0330                       

(X_U16.4)   17.0000                   (X_U16.5)     .8595                       

(X_U16.7)    0.0000                   (X_U16.8)  -16.0330                       

(X_U16.9)  -16.0330                   (X_U18.4)   17.0000                       

(X_U18.5)     .8595                   (X_U18.7)    0.0000                       

(X_U18.8)  -16.0330                   (X_U18.9)  -16.0330                       

(+VCC_CON)   15.0000                  (-VCC_CON)  -15.0000                      

(/VALFA_N)     .2011                  (/VBETA_N)    4.2221                      

(X_U13.10)     .0050                  (X_U13.11)     .0025                      

(X_U13.12)     .0050                  (X_U13.13)   11.9500                      

(X_U13.14)  -11.9500                  (X_U13.15)     .0250                      

(X_U13.16) 25.00E-09                  (X_U13.20)     .0050                      

(X_U13.21)     .0025                  (X_U13.22)     .0050                      

(X_U13.23)   11.9500                  (X_U13.24)  -11.9500                      

(X_U13.25)     .0250                  (X_U13.26) 25.00E-09                      

(X_U13.32) 14.82E-06                  (X_U13.33)   11.9500                      

(X_U13.34)  -11.9500                  (X_U13.40)    -.0050                      

(X_U13.54)   -2.2624                  (X_U13.55)   13.4090                      

(X_U13.56)   13.4090                  (X_U13.59) 16.41E-06                      

(X_U13.60)    -.6967                  (X_U13.61)    -.6967                      

(X_U13.62)     .0050                  (X_U13.63)   10.6600                      

(X_U13.64)  -10.6600                  (X_U13.65) 5047.0000                      

(X_U13.66)     .0050                  (X_U13.67) 5047.0000                      

(X_U13.68)    0.0000                  (X_U13.69)     .0050                      

(X_U13.70)     .7000                  (X_U13.71)    -.6900                      

(X_U13.72)     .0050                  (X_U13.73)    -.5258                      

(X_U13.74)    0.0000                  (X_U13.75)    0.0000                      

(X_U14.21)    -.0012                  (X_U14.22)   13.6300                      

(X_U14.23)  -13.6300                  (X_U14.24)-103.2E-09                      

(X_U14.25)-1.022E-09                  (X_U14.2a)-206.4E-09                      

(X_U14.33)   17.0000                  (X_U14.38)  -14.2120                      

(X_U14.39)   14.2100                  (X_U14.4x)   15.0000                      

(X_U14.66)    -.7502                  (X_U14.6c)    2.2171                      

(X_U14.6h)    2.2411                  (X_U14.6l)    2.1931                      

(X_U14.7a)    0.0000                  (X_U14.8x)  -14.0330                      

(X_U14.98)    0.0000                  (X_U14.9x)  -14.0330                      

(X_U15.10)     .0050                  (X_U15.11)   -2.3575                      

(X_U15.12)    4.7250                  (X_U15.13)   11.9500                      

(X_U15.14)  -11.9500                  (X_U15.15)  -23.5750                      

(X_U15.16)-23.58E-06                  (X_U15.20)   -4.7150                      

(X_U15.21)   -2.3575                  (X_U15.22)   -4.7150                      

(X_U15.23)   11.9500                  (X_U15.24)  -11.9500                      

(X_U15.25)  -23.5750                  (X_U15.26)-23.58E-06                      

(X_U15.32)   -2.2271                  (X_U15.33)   11.9500                      

(X_U15.34)  -11.9500                  (X_U15.40)   -2.2328                      

(X_U15.54)   -4.4898                  (X_U15.55)   13.4080                      

(X_U15.56)   13.4090                  (X_U15.59)   -2.2278                      

(X_U15.60)   -2.9238                  (X_U15.61)   -2.9245                      

(X_U15.62)   -2.2326                  (X_U15.63)   10.6600                      

(X_U15.64)  -10.6600                  (X_U15.65)-2.233E+06                      

(X_U15.66)   -2.2326                  (X_U15.67)-2.233E+06                      

(X_U15.68)    0.0000                  (X_U15.69)   -2.2326                      

(X_U15.70)   -1.5271                  (X_U15.71)   -2.9171                      

(X_U15.72)   -2.2221                  (X_U15.73)     .6602                      

(X_U15.74)    0.0000                  (X_U15.75)    0.0000                      

(X_U16.21)-8.981E-06                  (X_U16.22)   13.6300                      

(X_U16.23)  -13.6300                  (X_U16.24)-219.4E-12                      

(X_U16.25)-2.173E-12                  (X_U16.2a)-438.9E-12                      

(X_U16.33)   17.0000                  (X_U16.38)  -14.2110                      

(X_U16.39)   14.2110                  (X_U16.4x)   15.0000                      

(X_U16.66)    -.7502                  (X_U16.6c)     .2011                      

(X_U16.6h)     .2251                  (X_U16.6l)     .1771                      

(X_U16.7a)    0.0000                  (X_U16.8x)  -14.0330                      

(X_U16.98)    0.0000                  (X_U16.9x)  -14.0330                      

(X_U17.10)    2.2222                  (X_U17.11)    1.1111                      

(X_U17.12)    2.2221                  (X_U17.13)   11.9500                      

(X_U17.14)  -11.9500                  (X_U17.15)   11.1110                      

(X_U17.16) 11.11E-06                  (X_U17.20)     .2061                      

(X_U17.21)     .1031                  (X_U17.22)     .2061                      

(X_U17.23)   11.9500                  (X_U17.24)  -11.9500                      

(X_U17.25)    1.0306                  (X_U17.26) 1.031E-06                      

(X_U17.32)     .0458                  (X_U17.33)   11.9500                      

(X_U17.34)  -11.9500                  (X_U17.40)     .0408                      

(X_U17.54)   -2.2166                  (X_U17.55)   13.4090                      

(X_U17.56)   13.4090                  (X_U17.59)     .0458                      

(X_U17.60)    -.6509                  (X_U17.61)    -.6509                      

(X_U17.62) 410.8E-06                  (X_U17.63)   10.6600                      

(X_U17.64)  -10.6600                  (X_U17.65)  410.7800                      

(X_U17.66) 410.8E-06                  (X_U17.67)  410.7800                      

(X_U17.68)    0.0000                  (X_U17.69) 410.8E-06                      

(X_U17.70)     .6950                  (X_U17.71)    -.6950                      

(X_U17.72) 973.4E-12                  (X_U17.73)    -.5764                      

(X_U17.74)    0.0000                  (X_U17.75)    0.0000                      

(X_U18.21)-13.38E-06                  (X_U18.22)   13.6300                      

(X_U18.23)  -13.6300                  (X_U18.24)-585.7E-12                      

(X_U18.25)-5.799E-12                  (X_U18.2a)-1.171E-09                      

(X_U18.33)   17.0000                  (X_U18.38)  -14.2110                      

(X_U18.39)   14.2110                  (X_U18.4x)   15.0000                      

(X_U18.66)    -.7502                  (X_U18.6c)    4.2221                      

(X_U18.6h)    4.2461                  (X_U18.6l)    4.1981                      

(X_U18.7a)    0.0000                  (X_U18.8x)  -14.0330                      

(X_U18.98)    0.0000                  (X_U18.9x)  -14.0330                      

(X_U19.10)    2.2222                  (X_U19.11)    1.1111                      

(X_U19.12)    2.2221                  (X_U19.13)   11.9500                      

(X_U19.14)  -11.9500                  (X_U19.15)   11.1110                      

(X_U19.16) 11.11E-06                  (X_U19.20)    4.2271                      

(X_U19.21)    2.1135                  (X_U19.22)    4.2271                      

(X_U19.23)   11.9500                  (X_U19.24)  -11.9500                      

(X_U19.25)   21.1350                  (X_U19.26) 21.14E-06                      

(X_U19.32)     .9390                  (X_U19.33)   11.9500                      

(X_U19.34)  -11.9500                  (X_U19.40)     .9343                      

(X_U19.54)   -1.3232                  (X_U19.55)   13.4090                      

(X_U19.56)   13.4080                  (X_U19.59)     .9393                      

(X_U19.60)     .2423                  (X_U19.61)     .2426                      

(X_U19.62)     .9579                  (X_U19.63)   10.6600                      

(X_U19.64)  -10.6600                  (X_U19.65) 957.9E+03                      

(X_U19.66)     .9579                  (X_U19.67) 957.9E+03                      

(X_U19.68)    0.0000                  (X_U19.69)     .9579                      

(X_U19.70)    1.6390                  (X_U19.71)     .2490                      

(X_U19.72)     .9440                  (X_U19.73)    -.6675                      

(X_U19.74)    0.0000                  (X_U19.75)    0.0000                      

(X_U20.10)     .0050                  (X_U20.11)     .1031                      

(X_U20.12)    -.1961                  (X_U20.13)   11.9500                      

(X_U20.14)  -11.9500                  (X_U20.15)    1.0306                      

(X_U20.16) 1.031E-06                  (X_U20.20)   -6.6635                      

(X_U20.21)   -3.3317                  (X_U20.22)   -6.6635                      

(X_U20.23)   11.9500                  (X_U20.24)  -11.9500                      

(X_U20.25)  -33.3170                  (X_U20.26)-33.32E-06                      

(X_U20.32)     .1307                  (X_U20.33)   11.9500                      

(X_U20.34)  -11.9500                  (X_U20.40)     .1257                      

(X_U20.54)   -2.1317                  (X_U20.55)   13.4090                      

(X_U20.56)   13.4090                  (X_U20.59)     .1307                      

(X_U20.60)    -.5661                  (X_U20.61)    -.5660                      

(X_U20.62)     .1390                  (X_U20.63)   10.6600                      

(X_U20.64)  -10.6600                  (X_U20.65) 139.0E+03                      

(X_U20.66)     .1390                  (X_U20.67) 139.0E+03                      

(X_U20.68)    0.0000                  (X_U20.69)     .1390                      

(X_U20.70)     .8306                  (X_U20.71)    -.5594                      

(X_U20.72)     .1356                  (X_U20.73)    -.6311                      

(X_U20.74)    0.0000                  (X_U20.75)    0.0000                      

(X_U21.10)     .0050                  (X_U21.11)    2.1135                      

(X_U21.12)   -4.2170                  (X_U21.13)   11.9500                      

(X_U21.14)  -11.9500                  (X_U21.15)   21.1350                      

(X_U21.16) 21.14E-06                  (X_U21.20)   -6.6635                      

(X_U21.21)   -3.3317                  (X_U21.22)   -6.6635                      

(X_U21.23)   11.9500                  (X_U21.24)  -11.9500                      

(X_U21.25)  -33.3170                  (X_U21.26)-33.32E-06                      

(X_U21.32)    2.8091                  (X_U21.33)   11.9500                      

(X_U21.34)  -11.9500                  (X_U21.40)    2.8050                      

(X_U21.54)     .5472                  (X_U21.55)   13.4090                      

(X_U21.56)   13.4080                  (X_U21.59)    2.8100                      

(X_U21.60)    2.1124                  (X_U21.61)    2.1133                      

(X_U21.62)    2.8149                  (X_U21.63)   10.6600                      

(X_U21.64)  -10.6600                  (X_U21.65) 2.815E+06                      

(X_U21.66)    2.8149                  (X_U21.67) 2.815E+06                      

(X_U21.68)    0.0000                  (X_U21.69)    2.8149                      

(X_U21.70)    3.5091                  (X_U21.71)    2.1191                      

(X_U21.72)    2.8141                  (X_U21.73)    -.5925                      

(X_U21.74)    0.0000                  (X_U21.75)    0.0000                      

(IALFA_REF)     .1356                 (IBETA_REF)    2.8141                     

(VALFA_SQR)     .0050                 (VBETA_SQR)   -2.2221                     

(X_U13.100)    0.0000                 (X_U14.33x)   15.0000                     

(X_U14.550)  -14.2500                 (X_U15.100)    0.0000                     

(X_U16.33x)   15.0000                 (X_U16.550)  -14.2500                     

(X_U17.100)    0.0000                 (X_U18.33x)   15.0000                     

(X_U18.550)  -14.2500                 (X_U19.100)    0.0000                     

(X_U20.100)    0.0000                 (X_U21.100)    0.0000                     

(X_U14.553a)  -14.3800                (X_U16.553a)  -14.3800                    

(X_U18.553a)  -14.3800                (X_U14.nvsat)  -13.6300                   

(X_U16.nvsat)  -13.6300               (X_U18.nvsat)  -13.6300                   

(X_U14.vswitch)   13.2000             (X_U16.vswitch)   13.2000                 

(X_U18.vswitch)   13.2000             




    VOLTAGE SOURCE CURRENTS
    NAME         CURRENT

    V_Valfa     -1.600E-06
    V_Vbeta      3.140E-04
    V_V5        -4.523E-02
    V_V4        -4.558E-02
    V_V7         3.332E-04
    X_U17.VX1    9.729E-12
    X_U17.VX2    1.417E-11
    X_U17.VY1    1.174E-11
    X_U17.VY2    1.216E-11
    X_U17.VZ1    3.581E-11
    X_U17.VZ2    2.390E-11
    X_U17.VOOS  -4.986E-09
    X_U17.V1     1.066E-11
    X_U17.V2     1.066E-11
    X_U17.VNC    0.000E+00
    X_U17.VZC1  -5.774E-13
    X_U17.VZC2   4.775E-06
    X_U17.VSC1  -6.956E-13
    X_U17.VSC2  -6.964E-13
    X_U16.Vpvsat   0.000E+00
    X_U16.Vnvsat   0.000E+00
    X_U16.vr1   -9.971E-10
    X_U16.vr2   -9.971E-10
    X_U16.vr3   -2.000E-04
    X_U16.vr4   -2.000E-04
    X_U16.v1     1.364E-11
    X_U16.v2     1.364E-11
    X_U16.vh    -1.796E-03
    X_U16.vl    -1.795E-03
    X_U13.VX1    1.195E-11
    X_U13.VX2    1.196E-11
    X_U13.VY1    1.195E-11
    X_U13.VY2    1.196E-11
    X_U13.VZ1    3.585E-11
    X_U13.VZ2    2.390E-11
    X_U13.VOOS  -4.986E-09
    X_U13.V1     1.066E-11
    X_U13.V2     1.067E-11
    X_U13.VNC    0.000E+00
    X_U13.VZC1  -5.268E-13
    X_U13.VZC2   6.742E-07
    X_U13.VSC1  -6.959E-13
    X_U13.VSC2  -6.961E-13
    X_U15.VX1    7.226E-12
    X_U15.VX2    1.668E-11
    X_U15.VY1    1.667E-11
    X_U15.VY2    7.236E-12
    X_U15.VZ1    3.808E-11
    X_U15.VZ2    2.390E-11
    X_U15.VOOS  -4.983E-09
    X_U15.V1     1.289E-11
    X_U15.V2     8.428E-12
    X_U15.VNC    0.000E+00
    X_U15.VZC1   1.217E-04
    X_U15.VZC2  -6.612E-13
    X_U15.VSC1  -7.065E-13
    X_U15.VSC2  -6.855E-13
    X_U14.Vpvsat   0.000E+00
    X_U14.Vnvsat   0.000E+00
    X_U14.vr1   -9.964E-10
    X_U14.vr2   -9.977E-10
    X_U14.vr3   -2.000E-04
    X_U14.vr4   -2.000E-04
    X_U14.v1     1.364E-11
    X_U14.v2     1.364E-11
    X_U14.vh    -1.909E-03
    X_U14.vl    -1.685E-03
    X_U18.Vpvsat   0.000E+00
    X_U18.Vnvsat   0.000E+00
    X_U18.vr1   -9.971E-10
    X_U18.vr2   -9.970E-10
    X_U18.vr3   -2.000E-04
    X_U18.vr4   -2.000E-04
    X_U18.v1     1.364E-11
    X_U18.v2     1.364E-11
    X_U18.vh    -1.797E-03
    X_U18.vl    -1.794E-03
    X_U19.VX1    9.729E-12
    X_U19.VX2    1.417E-11
    X_U19.VY1    7.724E-12
    X_U19.VY2    1.618E-11
    X_U19.VZ1    3.491E-11
    X_U19.VZ2    2.390E-11
    X_U19.VOOS  -4.988E-09
    X_U19.V1     9.703E-12
    X_U19.V2     1.162E-11
    X_U19.VNC    0.000E+00
    X_U19.VZC1  -6.685E-13
    X_U19.VZC2   1.614E-04
    X_U19.VSC1  -6.821E-13
    X_U19.VSC2  -7.099E-13
    X_U21.VX1    1.617E-11
    X_U21.VX2    7.734E-12
    X_U21.VY1    1.861E-11
    X_U21.VY2    5.288E-12
    X_U21.VZ1    3.304E-11
    X_U21.VZ2    2.390E-11
    X_U21.VOOS  -4.990E-09
    X_U21.V1     7.846E-12
    X_U21.V2     1.348E-11
    X_U21.VNC    0.000E+00
    X_U21.VZC1  -5.935E-13
    X_U21.VZC2   8.877E-06
    X_U21.VSC1  -6.952E-13
    X_U21.VSC2  -6.968E-13
    X_U20.VX1    1.215E-11
    X_U20.VX2    1.175E-11
    X_U20.VY1    1.861E-11
    X_U20.VY2    5.288E-12
    X_U20.VZ1    3.572E-11
    X_U20.VZ2    2.390E-11
    X_U20.VOOS  -4.986E-09
    X_U20.V1     1.052E-11
    X_U20.V2     1.080E-11
    X_U20.VNC    0.000E+00
    X_U20.VZC1  -6.321E-13
    X_U20.VZC2   3.953E-05
    X_U20.VSC1  -6.926E-13
    X_U20.VSC2  -6.994E-13

    TOTAL POWER DISSIPATION   1.37E+00  WATTS

Reducing minimum delta to make the circuit converge.
Reducing minimum delta to make the circuit converge.
Reducing minimum delta to make the circuit converge.
Reducing minimum delta to make the circuit converge.
Reducing minimum delta to make the circuit converge.

ERROR(ORPSIM-15138): Convergence problem in Transient Analysis at Time =  4.247E-06.
         Time step =  648.2E-21, minimum allowable step size =  1.000E-18

  These voltages failed to converge:

    V(X_U20.66)               =    97.90mV  \    98.01mV

  These supply currents failed to converge:

    I(X_U17.EREF)             =     2.340A  \     2.337A
    I(X_U17.EOSX)             =   748.87uA  \   766.50uA
    I(X_U17.EOSY)             =   236.98mA  \   233.08mA
    I(X_U16.ep)               =   -1.555mA  \   394.22uA
    I(X_U16.en)               =    1.555mA  \  -394.07uA
    I(X_U13.EREF)             =    16.72uA  \    15.09uA
    I(X_U13.ENC)              =     11.50A  \     12.49A
    I(X_U15.EREF)             =  -393.95mA  \   -4.736mA
    I(X_U15.ENC)              =    4.040KA  \    4.388KA
    I(X_U14.ep)               =    6.060uA  \   -2.763uA
    I(X_U14.en)               =   -6.047uA  \    2.763uA
    I(X_U18.ep)               =    1.583mA  \   255.50uA
    I(X_U18.en)               =   -1.583mA  \  -255.45uA
    I(X_U19.EREF)             =     61.28A  \     61.39A
    I(X_U19.ENC)              =  -153.55KA  \  -153.07KA
    I(X_U21.EREF)             =     60.09A  \     61.31A
    I(X_U21.ENC)              =  -176.24KA  \  -177.72KA
    I(X_U20.EREF)             =     2.237A  \     2.331A
    I(X_U20.ENZ)              =   -97.90KA  \   -98.01KA
    I(V_V4)                   =   -43.83mA  \   -44.44mA
    I(X_U16.Vpvsat)           =   559.29nA  \   558.10nA
    I(X_U16.v1)               =   772.91pA  \   209.78pA
    I(X_U16.v2)               =  -744.18pA  \  -182.29pA
    I(X_U13.VNC)              =    -11.50A  \    -12.49A
    I(X_U15.VNC)              =   -4.040KA  \   -4.388KA
    I(X_U14.Vpvsat)           =  -222.69nA  \  -221.15nA
    I(X_U14.Vnvsat)           =    97.80nA  \    97.16nA
    I(X_U14.v1)               =  -189.07nA  \  -188.61nA
    I(X_U14.v2)               =   189.00nA  \   188.55nA
    I(X_U18.Vnvsat)           =   158.39nA  \   157.43nA
    I(X_U18.v1)               =  -494.77pA  \    48.09pA
    I(X_U18.v2)               =   524.32pA  \   -20.73pA
    I(X_U19.VNC)              =   153.55KA  \   153.07KA
    I(X_U21.VNC)              =   176.24KA  \   177.72KA

  These devices failed to converge:
    X_U16.d3  X_U16.d8  X_U16.d1  X_U16.d2  X_U14.d3  X_U14.d4  X_U14.d5  
    X_U14.d7  X_U14.d8  X_U18.d3  X_U18.d4  X_U18.d5  X_U18.d7  X_U18.d8  
    X_U18.d1  X_U18.d2  X_U16.m7  X_U16.m9  X_U16.m1  X_U16.m2  X_U16.m4  
    X_U14.m8  X_U14.m9  X_U14.m9c X_U14.m1  X_U14.m2  X_U14.m4  X_U18.m8  
    X_U18.m9  X_U18.m9c X_U18.m1  X_U18.m2  



  Last node voltages tried were:

 NODE   VOLTAGE     NODE   VOLTAGE     NODE   VOLTAGE     NODE   VOLTAGE


(-50MV)    -.0508  (E_SQR)    2.2263  (VALFA)     .0063  (VBETA)   -4.7200      

(N14775) 562.1E-06 (N15996)     .1692 (N16288)     .1317 (N17409)     .4005     

(N17437)    1.4476 (N18560)   -6.6684 (N18640)  -10.0000 (X_U14.4)   17.0000    

(X_U14.5)     .8595                   (X_U14.7)    0.0000                       

(X_U14.8)  -16.0330                   (X_U14.9)  -16.0330                       

(X_U16.4)   17.0000                   (X_U16.5)     .9028                       

(X_U16.7)    0.0000                   (X_U16.8)  -17.0250                       

(X_U16.9)  -15.0920                   (X_U18.4)   16.9990                       

(X_U18.5)     .9045                   (X_U18.7)    0.0000                       

(X_U18.8)  -16.9820                   (X_U18.9)  -15.0500                       

(+VCC_CON)   15.0000                  (-VCC_CON)  -15.0000                      

(/VALFA_N)   -3.3191                  (/VBETA_N)    5.2895                      

(X_U13.10)     .0050                  (X_U13.11)     .0057                      

(X_U13.12)    -.0013                  (X_U13.13)   11.9500                      

(X_U13.14)  -11.9500                  (X_U13.15)     .0566                      

(X_U13.16) 32.26E-06                  (X_U13.20)     .0113                      

(X_U13.21)     .0057                  (X_U13.22)     .0113                      

(X_U13.23)   11.9500                  (X_U13.24)  -11.9500                      

(X_U13.25)     .0566                  (X_U13.26) 31.70E-06                      

(X_U13.32) 11.87E-06                  (X_U13.33)   11.9500                      

(X_U13.34)  -11.9500                  (X_U13.40)    -.0050                      

(X_U13.54)   -2.2624                  (X_U13.55)   13.4090                      

(X_U13.56)   13.4090                  (X_U13.59) 12.48E-06                      

(X_U13.60)    -.6967                  (X_U13.61)    -.6967                      

(X_U13.62)     .0050                  (X_U13.63)   10.6600                      

(X_U13.64)  -10.6600                  (X_U13.65) 5043.2000                      

(X_U13.66)     .0051                  (X_U13.67) 5043.2000                      

(X_U13.68)    0.0000                  (X_U13.69)     .0050                      

(X_U13.70)     .7000                  (X_U13.71)    -.6900                      

(X_U13.72)     .0050                  (X_U13.73)    -.5247                      

(X_U13.74)    0.0000                  (X_U13.75)    0.0000                      

(X_U14.21)     .0070                  (X_U14.22)   13.6300                      

(X_U14.23)  -13.6300                  (X_U14.24) 281.0E-06                      

(X_U14.25) 244.2E-06                  (X_U14.2a) 202.2E-06                      

(X_U14.33)   17.0000                  (X_U14.38)  -14.2040                      

(X_U14.39)   14.2180                  (X_U14.4x)   15.0000                      

(X_U14.66)    -.7501                  (X_U14.6c)    2.2254                      

(X_U14.6h)    2.2503                  (X_U14.6l)    2.2023                      

(X_U14.7a) 50.27E-06                  (X_U14.8x)  -14.0330                      

(X_U14.98)    0.0000                  (X_U14.9x)  -14.0330                      

(X_U15.10)     .0054                  (X_U15.11)   -2.3573                      

(X_U15.12)    4.7250                  (X_U15.13)   11.9500                      

(X_U15.14)  -11.9500                  (X_U15.15)  -23.5730                      

(X_U15.16) 371.0E-06                  (X_U15.20)   -4.7145                      

(X_U15.21)   -2.3572                  (X_U15.22)   -4.7150                      

(X_U15.23)   11.9500                  (X_U15.24)  -11.9500                      

(X_U15.25)  -23.5720                  (X_U15.26) 529.5E-06                      

(X_U15.32)   -2.2271                  (X_U15.33)   11.9500                      

(X_U15.34)  -11.9500                  (X_U15.40)   -2.2328                      

(X_U15.54)   -4.4898                  (X_U15.55)   13.4080                      

(X_U15.56)   13.4090                  (X_U15.59)   -2.2278                      

(X_U15.60)   -2.9238                  (X_U15.61)   -2.9245                      

(X_U15.62)   -2.2326                  (X_U15.63)   10.6600                      

(X_U15.64)  -10.6600                  (X_U15.65)-2.233E+06                      

(X_U15.66)   -2.2286                  (X_U15.67)-2.233E+06                      

(X_U15.68)    0.0000                  (X_U15.69)   -2.2326                      

(X_U15.70)   -1.5271                  (X_U15.71)   -2.9171                      

(X_U15.72)   -2.2221                  (X_U15.73)     .6602                      

(X_U15.74)    0.0000                  (X_U15.75)    0.0000                      

(X_U16.21)     .0065                  (X_U16.22)   13.6300                      

(X_U16.23)  -13.6300                  (X_U16.24)     .0846                      

(X_U16.25)    -.0149                  (X_U16.2a)     .1808                      

(X_U16.33)   16.9750                  (X_U16.38)  -14.2040                      

(X_U16.39)   14.2170                  (X_U16.4x)   15.0000                      

(X_U16.66)    -.3250                  (X_U16.6c)   -2.6378                      

(X_U16.6h)   -3.2951                  (X_U16.6l)   -3.3431                      

(X_U16.7a)-843.4E-06                  (X_U16.8x)  -15.0250                      

(X_U16.98)    0.0000                  (X_U16.9x)  -13.0920                      

(X_U17.10)-7671.3000                  (X_U17.11)-3835.7000                      

(X_U17.12)  -12.7170                  (X_U17.13)   11.9500                      

(X_U17.14)  -11.9500                  (X_U17.15)-38.36E+03                      

(X_U17.16)-7673.6000                  (X_U17.20)-2.330E+06                      

(X_U17.21)-1.165E+06                  (X_U17.22)  -12.8650                      

(X_U17.23)   11.9500                  (X_U17.24)  -11.9500                      

(X_U17.25)-11.65E+06                  (X_U17.26)-2.330E+06                      

(X_U17.32)     .2422                  (X_U17.33)   11.9500                      

(X_U17.34)  -11.9500                  (X_U17.40)   12.1940                      

(X_U17.54)    8.3534                  (X_U17.55)   15.0000                      

(X_U17.56)   11.8170                  (X_U17.59)   12.1990                      

(X_U17.60)    8.3534                  (X_U17.61)   11.4850                      

(X_U17.62)    -.0274                  (X_U17.63)   10.6600                      

(X_U17.64)  -10.6600                  (X_U17.65)-27.39E+03                      

(X_U17.66)    -.1865                  (X_U17.67)-27.39E+03                      

(X_U17.68)    0.0000                  (X_U17.69)     .1311                      

(X_U17.70)     .8266                  (X_U17.71)    -.5634                      

(X_U17.72)     .1316                  (X_U17.73)     .5787                      

(X_U17.74)    0.0000                  (X_U17.75)    0.0000                      

(X_U18.21)     .0065                  (X_U18.22)   13.6300                      

(X_U18.23)  -13.6300                  (X_U18.24)     .2003                      

(X_U18.25)     .0093                  (X_U18.2a)     .3967                      

(X_U18.33)   17.0170                  (X_U18.38)  -14.2040                      

(X_U18.39)   14.2170                  (X_U18.4x)   14.9990                      

(X_U18.66)    -.3397                  (X_U18.6c)    5.9558                      

(X_U18.6h)    5.3135                  (X_U18.6l)    5.2655                      

(X_U18.7a)-559.6E-06                  (X_U18.8x)  -14.9820                      

(X_U18.98)    0.0000                  (X_U18.9x)  -13.0500                      

(X_U19.10)-7671.3000                  (X_U19.11)-3835.7000                      

(X_U19.12)  -12.7170                  (X_U19.13)   11.9500                      

(X_U19.14)  -11.9500                  (X_U19.15)-38.36E+03                      

(X_U19.16)-7673.6000                  (X_U19.20)-61.36E+06                      

(X_U19.21)-30.68E+06                  (X_U19.22)  -12.9500                      

(X_U19.23)   11.9500                  (X_U19.24)  -11.9500                      

(X_U19.25)-306.8E+06                  (X_U19.26)-61.36E+06                      

(X_U19.32)    1.4415                  (X_U19.33)   11.9500                      

(X_U19.34)  -11.9500                  (X_U19.40)   12.2670                      

(X_U19.54)    8.4264                  (X_U19.55)   15.0000                      

(X_U19.56)   11.8170                  (X_U19.59)   12.2720                      

(X_U19.60)    8.4264                  (X_U19.61)   11.5580                      

(X_U19.62)    1.4580                  (X_U19.63)   10.6600                      

(X_U19.64)  -10.6600                  (X_U19.65) 1.458E+06                      

(X_U19.66)    1.3045                  (X_U19.67) 1.458E+06                      

(X_U19.68)    0.0000                  (X_U19.69)    1.4632                      

(X_U19.70)    2.1425                  (X_U19.71)     .7525                      

(X_U19.72)    1.4475                  (X_U19.73)    -.6706                      

(X_U19.74)    0.0000                  (X_U19.75)    0.0000                      

(X_U20.10)-2.330E+06                  (X_U20.11)-1.165E+06                      

(X_U20.12)  -12.8650                  (X_U20.13)   11.9500                      

(X_U20.14)  -11.9500                  (X_U20.15)-11.65E+06                      

(X_U20.16)-2.330E+06                  (X_U20.20)   -6.6632                      

(X_U20.21)   -3.3316                  (X_U20.22)   -6.6634                      

(X_U20.23)   11.9500                  (X_U20.24)  -11.9500                      

(X_U20.25)  -33.3160                  (X_U20.26) 247.7E-06                      

(X_U20.32)     .7499                  (X_U20.33)   11.9500                      

(X_U20.34)  -11.9500                  (X_U20.40)    8.1723                      

(X_U20.54)    4.3313                  (X_U20.55)   15.0000                      

(X_U20.56)   11.8170                  (X_U20.59)    8.1773                      

(X_U20.60)    4.3313                  (X_U20.61)    7.4626                      

(X_U20.62)     .2558                  (X_U20.63)   10.6600                      

(X_U20.64)  -10.6600                  (X_U20.65) 255.8E+03                      

(X_U20.66)     .0979                  (X_U20.67) 255.8E+03                      

(X_U20.68)    0.0000                  (X_U20.69)     .5941                      

(X_U20.70)    1.2888                  (X_U20.71)    -.1012                      

(X_U20.72)     .5938                  (X_U20.73)    -.5694                      

(X_U20.74)    0.0000                  (X_U20.75)    0.0000                      

(X_U21.10)-61.36E+06                  (X_U21.11)-30.68E+06                      

(X_U21.12)  -12.9500                  (X_U21.13)   11.9500                      

(X_U21.14)  -11.9500                  (X_U21.15)-306.8E+06                      

(X_U21.16)-61.36E+06                  (X_U21.20)   -6.6632                      

(X_U21.21)   -3.3316                  (X_U21.22)   -6.6634                      

(X_U21.23)   11.9500                  (X_U21.24)  -11.9500                      

(X_U21.25)  -33.3160                  (X_U21.26) 298.2E-06                      

(X_U21.32)    4.2860                  (X_U21.33)   11.9500                      

(X_U21.34)  -11.9500                  (X_U21.40)    8.5226                      

(X_U21.54)    4.6817                  (X_U21.55)   15.0000                      

(X_U21.56)   11.8170                  (X_U21.59)    8.5276                      

(X_U21.60)    4.6817                  (X_U21.61)    7.8130                      

(X_U21.62)    4.7938                  (X_U21.63)   10.6600                      

(X_U21.64)  -10.6600                  (X_U21.65) 4.794E+06                      

(X_U21.66)    4.6175                  (X_U21.67) 4.794E+06                      

(X_U21.68)    0.0000                  (X_U21.69)    4.3529                      

(X_U21.70)    5.0458                  (X_U21.71)    3.6558                      

(X_U21.72)    4.3508                  (X_U21.73)    -.6183                      

(X_U21.74)    0.0000                  (X_U21.75)    0.0000                      

(IALFA_REF)     .5938                 (IBETA_REF)    4.3508                     

(VALFA_SQR)     .0050                 (VBETA_SQR)   -2.2221                     

(X_U13.100)    0.0000                 (X_U14.33x)   15.0000                     

(X_U14.550)  -14.2500                 (X_U15.100)    0.0000                     

(X_U16.33x)   14.9750                 (X_U16.550)  -14.2500                     

(X_U17.100)    0.0000                 (X_U18.33x)   15.0170                     

(X_U18.550)  -14.2490                 (X_U19.100)    0.0000                     

(X_U20.100)    0.0000                 (X_U21.100)    0.0000                     

(X_U14.553a)  -14.3800                (X_U16.553a)  -14.3760                    

(X_U18.553a)  -14.3750                (X_U14.nvsat)  -13.6300                   

(X_U16.nvsat)  -13.6300               (X_U18.nvsat)  -13.6300                   

(X_U14.vswitch)   13.2000             (X_U16.vswitch)   13.2000                 

(X_U18.vswitch)   13.2000             


**** Interrupt ****
