
**** 09/23/15 10:14:01 ***** PSpice 16.6.0 (October 2012) ***** ID# 0 ********

 ** Profile: "Control-Temp"  [ C:\Documents and Settings\EGA\Escritorio\convertidor ac-dc-pspicefiles\control\temp.sim ] 


 ****     CIRCUIT DESCRIPTION


******************************************************************************




** Creating circuit file "Temp.cir" 
** WARNING: THIS AUTOMATICALLY GENERATED FILE MAY BE OVERWRITTEN BY SUBSEQUENT SIMULATIONS

*Libraries: 
* Profile Libraries :
* Local Libraries :
.LIB "E:/Hardware/OrCAD/Capture/PSpice/burr_brn.lib" 
* From [PSPICE NETLIST] section of E:\zOrCAD\cdssetup\OrCAD_PSpice/16.6.0/PSpice.ini file:
.lib "nom.lib" 

*Analysis directives: 
.TRAN  0 80ms 0 .2ms 
.OPTIONS ADVCONV
.PROBE64 V(alias(*)) I(alias(*)) W(alias(*)) D(alias(*)) NOISE(alias(*)) 
.INC "..\Control.net" 



**** INCLUDING Control.net ****
* source CONVERTIDOR AC-DC
X_U17         E_SQR 0 /VALFA_N 0 -VCC_CON -50MV N16288 +VCC_CON AD633/AD
R_R31         VALFA N15996  15k  
R_R32         N15996 N16288  3.0k  
X_U16         0 N15996 +VCC_CON -VCC_CON /VALFA_N OPA350
X_U13         0 VALFA VALFA 0 -VCC_CON 0 VALFA_SQR +VCC_CON AD633/AD
X_U15         0 VBETA VBETA 0 -VCC_CON 0 VBETA_SQR +VCC_CON AD633/AD
X_U14         0 N14775 +VCC_CON -VCC_CON E_SQR OPA350
R_R74         N14775 E_SQR  10k  
R_R75         VALFA_SQR N14775  10k  
R_R76         VBETA_SQR N14775  10k  
R_R36         VBETA N17409  15k  
R_R37         N17409 N17437  3.0k  
X_U18         0 N17409 +VCC_CON -VCC_CON /VBETA_N OPA350
X_U19         E_SQR 0 /VBETA_N 0 -VCC_CON 0 N17437 +VCC_CON AD633/AD
X_U21         0 /VBETA_N N18560 0 -VCC_CON 0 IBETA_REF +VCC_CON AD633/AD
X_U20         0 /VALFA_N N18560 0 -VCC_CON 0 IALFA_REF +VCC_CON AD633/AD
R_R1         VEA N18560  10k  
R_R2         N18560 0  20k  
V_Valfa         VALFA 0  
+SIN 0 4.72Vp 50Hz 0 0 0
V_Vbeta         VBETA 0  
+SIN 0 4.72Vp 50Hz 0 0 -90
V_V5         0 -VCC_CON 15V
V_V4         +VCC_CON 0 15V
R_R1003         0 IBETA_REF  1MEG  
R_R1002         0 IALFA_REF  1MEG  
V_V7         VEA 0  
+PULSE -10V +10V 20ms 20ms 20ms 20ms 80ms
R_R1004         -50MV -VCC_CON  299k  
R_R1005         0 -50MV  1k  

**** RESUMING Temp.cir ****
.END

**** 09/23/15 10:14:01 ***** PSpice 16.6.0 (October 2012) ***** ID# 0 ********

 ** Profile: "Control-Temp"  [ C:\Documents and Settings\EGA\Escritorio\convertidor ac-dc-pspicefiles\control\temp.sim ] 


 ****     Diode MODEL PARAMETERS


******************************************************************************




               X_U17.DX        X_U16.dx        X_U13.DX        X_U15.DX        
          IS    1.000000E-15   10.000000E-15    1.000000E-15    1.000000E-15 
          RS                    1                                            
         CJO                  100.000000E-15                                 


               X_U14.dx        X_U18.dx        X_U19.DX        X_U21.DX        
          IS   10.000000E-15   10.000000E-15    1.000000E-15    1.000000E-15 
          RS    1               1                                            
         CJO  100.000000E-15  100.000000E-15                                 


               X_U20.DX        
          IS    1.000000E-15 


**** 09/23/15 10:14:01 ***** PSpice 16.6.0 (October 2012) ***** ID# 0 ********

 ** Profile: "Control-Temp"  [ C:\Documents and Settings\EGA\Escritorio\convertidor ac-dc-pspicefiles\control\temp.sim ] 


 ****     BJT MODEL PARAMETERS


******************************************************************************




               X_U17.QX        X_U13.QX        X_U15.QX        X_U19.QX        
               NPN             NPN             NPN             NPN             
       LEVEL    1               1               1               1            
          IS  100.000000E-18  100.000000E-18  100.000000E-18  100.000000E-18 
          BF   10.000000E+03   10.000000E+03   10.000000E+03   10.000000E+03 
          NF    1               1               1               1            
          BR    1               1               1               1            
          NR    1               1               1               1            
         ISS    0               0               0               0            
          RE    0               0               0               0            
          RC    0               0               0               0            
         CJE    0               0               0               0            
         VJE     .75             .75             .75             .75         
         CJC    0               0               0               0            
         VJC     .75             .75             .75             .75         
         MJC     .33             .33             .33             .33         
        XCJC    1               1               1               1            
         CJS    0               0               0               0            
         VJS     .75             .75             .75             .75         
          KF    0               0               0               0            
          AF    1               1               1               1            
          CN    2.42            2.42            2.42            2.42         
           D     .87             .87             .87             .87         


               X_U21.QX        X_U20.QX        
               NPN             NPN             
       LEVEL    1               1            
          IS  100.000000E-18  100.000000E-18 
          BF   10.000000E+03   10.000000E+03 
          NF    1               1            
          BR    1               1            
          NR    1               1            
         ISS    0               0            
          RE    0               0            
          RC    0               0            
         CJE    0               0            
         VJE     .75             .75         
         CJC    0               0            
         VJC     .75             .75         
         MJC     .33             .33         
        XCJC    1               1            
         CJS    0               0            
         VJS     .75             .75         
          KF    0               0            
          AF    1               1            
          CN    2.42            2.42         
           D     .87             .87         


**** 09/23/15 10:14:01 ***** PSpice 16.6.0 (October 2012) ***** ID# 0 ********

 ** Profile: "Control-Temp"  [ C:\Documents and Settings\EGA\Escritorio\convertidor ac-dc-pspicefiles\control\temp.sim ] 


 ****     MOSFET MODEL PARAMETERS


******************************************************************************




               X_U16.nix       X_U16.nox       X_U16.pix       X_U16.pox       
               NMOS            NMOS            PMOS            PMOS            
       LEVEL    1               1               1               1            
           L  100.000000E-06  100.000000E-06  100.000000E-06  100.000000E-06 
           W  100.000000E-06  100.000000E-06  100.000000E-06  100.000000E-06 
         VTO     .75             .75            -.75            -.75         
          KP  205.500000E-06  195.000000E-06  205.500000E-06  195.000000E-06 
       GAMMA    0               0               0               0            
         PHI     .6              .6              .6              .6          
      LAMBDA    0               0               0               0            
          RD    1                .5             1                .5          
          RS    1                .5             1                .5          
          RG    1               1               1               1            
          RB    1               1               1               1            
          IS   10.000000E-15   10.000000E-15   10.000000E-15   10.000000E-15 
          JS    0               0               0               0            
          PB     .8              .8              .8              .8          
        PBSW     .8              .8              .8              .8          
         CBD  234.000000E-15  234.000000E-15  234.000000E-15  234.000000E-15 
         CBS  234.000000E-15  234.000000E-15  234.000000E-15  234.000000E-15 
          CJ    0               0               0               0            
        CJSW    0               0               0               0            
        CGSO    4.000000E-09   66.667000E-12    4.000000E-09   66.667000E-12 
        CGDO    4.000000E-09   66.667000E-12    4.000000E-09   66.667000E-12 
        CGBO   16.667000E-09  125.000000E-09   16.667000E-09  125.000000E-09 
         TOX    0               0               0               0            
          XJ    0               0               0               0            
       UCRIT   10.000000E+03   10.000000E+03   10.000000E+03   10.000000E+03 
      DIOMOD    1               1               1               1            
         VFB    0               0               0               0            
        LETA    0               0               0               0            
        WETA    0               0               0               0            
          U0    0               0               0               0            
        TEMP    0               0               0               0            
         VDD    5               5               5               5            
       XPART    0               0               0               0            


               X_U14.nix       X_U14.nox       X_U14.pix       X_U14.pox       
               NMOS            NMOS            PMOS            PMOS            
       LEVEL    1               1               1               1            
           L  100.000000E-06  100.000000E-06  100.000000E-06  100.000000E-06 
           W  100.000000E-06  100.000000E-06  100.000000E-06  100.000000E-06 
         VTO     .75             .75            -.75            -.75         
          KP  205.500000E-06  195.000000E-06  205.500000E-06  195.000000E-06 
       GAMMA    0               0               0               0            
         PHI     .6              .6              .6              .6          
      LAMBDA    0               0               0               0            
          RD    1                .5             1                .5          
          RS    1                .5             1                .5          
          RG    1               1               1               1            
          RB    1               1               1               1            
          IS   10.000000E-15   10.000000E-15   10.000000E-15   10.000000E-15 
          JS    0               0               0               0            
          PB     .8              .8              .8              .8          
        PBSW     .8              .8              .8              .8          
         CBD  234.000000E-15  234.000000E-15  234.000000E-15  234.000000E-15 
         CBS  234.000000E-15  234.000000E-15  234.000000E-15  234.000000E-15 
          CJ    0               0               0               0            
        CJSW    0               0               0               0            
        CGSO    4.000000E-09   66.667000E-12    4.000000E-09   66.667000E-12 
        CGDO    4.000000E-09   66.667000E-12    4.000000E-09   66.667000E-12 
        CGBO   16.667000E-09  125.000000E-09   16.667000E-09  125.000000E-09 
         TOX    0               0               0               0            
          XJ    0               0               0               0            
       UCRIT   10.000000E+03   10.000000E+03   10.000000E+03   10.000000E+03 
      DIOMOD    1               1               1               1            
         VFB    0               0               0               0            
        LETA    0               0               0               0            
        WETA    0               0               0               0            
          U0    0               0               0               0            
        TEMP    0               0               0               0            
         VDD    5               5               5               5            
       XPART    0               0               0               0            


               X_U18.nix       X_U18.nox       X_U18.pix       X_U18.pox       
               NMOS            NMOS            PMOS            PMOS            
       LEVEL    1               1               1               1            
           L  100.000000E-06  100.000000E-06  100.000000E-06  100.000000E-06 
           W  100.000000E-06  100.000000E-06  100.000000E-06  100.000000E-06 
         VTO     .75             .75            -.75            -.75         
          KP  205.500000E-06  195.000000E-06  205.500000E-06  195.000000E-06 
       GAMMA    0               0               0               0            
         PHI     .6              .6              .6              .6          
      LAMBDA    0               0               0               0            
          RD    1                .5             1                .5          
          RS    1                .5             1                .5          
          RG    1               1               1               1            
          RB    1               1               1               1            
          IS   10.000000E-15   10.000000E-15   10.000000E-15   10.000000E-15 
          JS    0               0               0               0            
          PB     .8              .8              .8              .8          
        PBSW     .8              .8              .8              .8          
         CBD  234.000000E-15  234.000000E-15  234.000000E-15  234.000000E-15 
         CBS  234.000000E-15  234.000000E-15  234.000000E-15  234.000000E-15 
          CJ    0               0               0               0            
        CJSW    0               0               0               0            
        CGSO    4.000000E-09   66.667000E-12    4.000000E-09   66.667000E-12 
        CGDO    4.000000E-09   66.667000E-12    4.000000E-09   66.667000E-12 
        CGBO   16.667000E-09  125.000000E-09   16.667000E-09  125.000000E-09 
         TOX    0               0               0               0            
          XJ    0               0               0               0            
       UCRIT   10.000000E+03   10.000000E+03   10.000000E+03   10.000000E+03 
      DIOMOD    1               1               1               1            
         VFB    0               0               0               0            
        LETA    0               0               0               0            
        WETA    0               0               0               0            
          U0    0               0               0               0            
        TEMP    0               0               0               0            
         VDD    5               5               5               5            
       XPART    0               0               0               0            


**** 09/23/15 10:14:01 ***** PSpice 16.6.0 (October 2012) ***** ID# 0 ********

 ** Profile: "Control-Temp"  [ C:\Documents and Settings\EGA\Escritorio\convertidor ac-dc-pspicefiles\control\temp.sim ] 


 ****     INITIAL TRANSIENT SOLUTION       TEMPERATURE =   27.000 DEG C


******************************************************************************



 NODE   VOLTAGE     NODE   VOLTAGE     NODE   VOLTAGE     NODE   VOLTAGE


(  VEA)  -10.0000  (-50MV)    -.0508  (E_SQR)    2.2171  (VALFA)    0.0000      

(VBETA)   -4.7200  (N14775)-206.4E-09 (N15996)-438.9E-12 (N16288) 973.4E-12     

(N17409)-1.171E-09 (N17437)     .9440 (N18560)   -6.6684 (X_U14.4)   17.0000    

(X_U14.5)     .8595                   (X_U14.7)    0.0000                       

(X_U14.8)  -16.0330                   (X_U14.9)  -16.0330                       

(X_U16.4)   17.0000                   (X_U16.5)     .8595                       

(X_U16.7)    0.0000                   (X_U16.8)  -16.0330                       

(X_U16.9)  -16.0330                   (X_U18.4)   17.0000                       

(X_U18.5)     .8595                   (X_U18.7)    0.0000                       

(X_U18.8)  -16.0330                   (X_U18.9)  -16.0330                       

(+VCC_CON)   15.0000                  (-VCC_CON)  -15.0000                      

(/VALFA_N)     .2011                  (/VBETA_N)    4.2221                      

(X_U13.10)     .0050                  (X_U13.11)     .0025                      

(X_U13.12)     .0050                  (X_U13.13)   11.9500                      

(X_U13.14)  -11.9500                  (X_U13.15)     .0250                      

(X_U13.16) 25.00E-09                  (X_U13.20)     .0050                      

(X_U13.21)     .0025                  (X_U13.22)     .0050                      

(X_U13.23)   11.9500                  (X_U13.24)  -11.9500                      

(X_U13.25)     .0250                  (X_U13.26) 25.00E-09                      

(X_U13.32) 14.82E-06                  (X_U13.33)   11.9500                      

(X_U13.34)  -11.9500                  (X_U13.40)    -.0050                      

(X_U13.54)   -2.2624                  (X_U13.55)   13.4090                      

(X_U13.56)   13.4090                  (X_U13.59) 16.41E-06                      

(X_U13.60)    -.6967                  (X_U13.61)    -.6967                      

(X_U13.62)     .0050                  (X_U13.63)   10.6600                      

(X_U13.64)  -10.6600                  (X_U13.65) 5047.0000                      

(X_U13.66)     .0050                  (X_U13.67) 5047.0000                      

(X_U13.68)    0.0000                  (X_U13.69)     .0050                      

(X_U13.70)     .7000                  (X_U13.71)    -.6900                      

(X_U13.72)     .0050                  (X_U13.73)    -.5258                      

(X_U13.74)    0.0000                  (X_U13.75)    0.0000                      

(X_U14.21)    -.0012                  (X_U14.22)   13.6300                      

(X_U14.23)  -13.6300                  (X_U14.24)-103.2E-09                      

(X_U14.25)-1.022E-09                  (X_U14.2a)-206.4E-09                      

(X_U14.33)   17.0000                  (X_U14.38)  -14.2120                      

(X_U14.39)   14.2100                  (X_U14.4x)   15.0000                      

(X_U14.66)    -.7502                  (X_U14.6c)    2.2171                      

(X_U14.6h)    2.2411                  (X_U14.6l)    2.1931                      

(X_U14.7a)    0.0000                  (X_U14.8x)  -14.0330                      

(X_U14.98)    0.0000                  (X_U14.9x)  -14.0330                      

(X_U15.10)     .0050                  (X_U15.11)   -2.3575                      

(X_U15.12)    4.7250                  (X_U15.13)   11.9500                      

(X_U15.14)  -11.9500                  (X_U15.15)  -23.5750                      

(X_U15.16)-23.58E-06                  (X_U15.20)   -4.7150                      

(X_U15.21)   -2.3575                  (X_U15.22)   -4.7150                      

(X_U15.23)   11.9500                  (X_U15.24)  -11.9500                      

(X_U15.25)  -23.5750                  (X_U15.26)-23.58E-06                      

(X_U15.32)   -2.2271                  (X_U15.33)   11.9500                      

(X_U15.34)  -11.9500                  (X_U15.40)   -2.2328                      

(X_U15.54)   -4.4898                  (X_U15.55)   13.4080                      

(X_U15.56)   13.4090                  (X_U15.59)   -2.2278                      

(X_U15.60)   -2.9238                  (X_U15.61)   -2.9245                      

(X_U15.62)   -2.2326                  (X_U15.63)   10.6600                      

(X_U15.64)  -10.6600                  (X_U15.65)-2.233E+06                      

(X_U15.66)   -2.2326                  (X_U15.67)-2.233E+06                      

(X_U15.68)    0.0000                  (X_U15.69)   -2.2326                      

(X_U15.70)   -1.5271                  (X_U15.71)   -2.9171                      

(X_U15.72)   -2.2221                  (X_U15.73)     .6602                      

(X_U15.74)    0.0000                  (X_U15.75)    0.0000                      

(X_U16.21)-8.981E-06                  (X_U16.22)   13.6300                      

(X_U16.23)  -13.6300                  (X_U16.24)-219.4E-12                      

(X_U16.25)-2.173E-12                  (X_U16.2a)-438.9E-12                      

(X_U16.33)   17.0000                  (X_U16.38)  -14.2110                      

(X_U16.39)   14.2110                  (X_U16.4x)   15.0000                      

(X_U16.66)    -.7502                  (X_U16.6c)     .2011                      

(X_U16.6h)     .2251                  (X_U16.6l)     .1771                      

(X_U16.7a)    0.0000                  (X_U16.8x)  -14.0330                      

(X_U16.98)    0.0000                  (X_U16.9x)  -14.0330                      

(X_U17.10)    2.2222                  (X_U17.11)    1.1111                      

(X_U17.12)    2.2221                  (X_U17.13)   11.9500                      

(X_U17.14)  -11.9500                  (X_U17.15)   11.1110                      

(X_U17.16) 11.11E-06                  (X_U17.20)     .2061                      

(X_U17.21)     .1031                  (X_U17.22)     .2061                      

(X_U17.23)   11.9500                  (X_U17.24)  -11.9500                      

(X_U17.25)    1.0306                  (X_U17.26) 1.031E-06                      

(X_U17.32)     .0458                  (X_U17.33)   11.9500                      

(X_U17.34)  -11.9500                  (X_U17.40)     .0408                      

(X_U17.54)   -2.2166                  (X_U17.55)   13.4090                      

(X_U17.56)   13.4090                  (X_U17.59)     .0458                      

(X_U17.60)    -.6509                  (X_U17.61)    -.6509                      

(X_U17.62) 410.8E-06                  (X_U17.63)   10.6600                      

(X_U17.64)  -10.6600                  (X_U17.65)  410.7800                      

(X_U17.66) 410.8E-06                  (X_U17.67)  410.7800                      

(X_U17.68)    0.0000                  (X_U17.69) 410.8E-06                      

(X_U17.70)     .6950                  (X_U17.71)    -.6950                      

(X_U17.72) 973.4E-12                  (X_U17.73)    -.5764                      

(X_U17.74)    0.0000                  (X_U17.75)    0.0000                      

(X_U18.21)-13.38E-06                  (X_U18.22)   13.6300                      

(X_U18.23)  -13.6300                  (X_U18.24)-585.7E-12                      

(X_U18.25)-5.799E-12                  (X_U18.2a)-1.171E-09                      

(X_U18.33)   17.0000                  (X_U18.38)  -14.2110                      

(X_U18.39)   14.2110                  (X_U18.4x)   15.0000                      

(X_U18.66)    -.7502                  (X_U18.6c)    4.2221                      

(X_U18.6h)    4.2461                  (X_U18.6l)    4.1981                      

(X_U18.7a)    0.0000                  (X_U18.8x)  -14.0330                      

(X_U18.98)    0.0000                  (X_U18.9x)  -14.0330                      

(X_U19.10)    2.2222                  (X_U19.11)    1.1111                      

(X_U19.12)    2.2221                  (X_U19.13)   11.9500                      

(X_U19.14)  -11.9500                  (X_U19.15)   11.1110                      

(X_U19.16) 11.11E-06                  (X_U19.20)    4.2271                      

(X_U19.21)    2.1135                  (X_U19.22)    4.2271                      

(X_U19.23)   11.9500                  (X_U19.24)  -11.9500                      

(X_U19.25)   21.1350                  (X_U19.26) 21.14E-06                      

(X_U19.32)     .9390                  (X_U19.33)   11.9500                      

(X_U19.34)  -11.9500                  (X_U19.40)     .9343                      

(X_U19.54)   -1.3232                  (X_U19.55)   13.4090                      

(X_U19.56)   13.4080                  (X_U19.59)     .9393                      

(X_U19.60)     .2423                  (X_U19.61)     .2426                      

(X_U19.62)     .9579                  (X_U19.63)   10.6600                      

(X_U19.64)  -10.6600                  (X_U19.65) 957.9E+03                      

(X_U19.66)     .9579                  (X_U19.67) 957.9E+03                      

(X_U19.68)    0.0000                  (X_U19.69)     .9579                      

(X_U19.70)    1.6390                  (X_U19.71)     .2490                      

(X_U19.72)     .9440                  (X_U19.73)    -.6675                      

(X_U19.74)    0.0000                  (X_U19.75)    0.0000                      

(X_U20.10)     .0050                  (X_U20.11)     .1031                      

(X_U20.12)    -.1961                  (X_U20.13)   11.9500                      

(X_U20.14)  -11.9500                  (X_U20.15)    1.0306                      

(X_U20.16) 1.031E-06                  (X_U20.20)   -6.6635                      

(X_U20.21)   -3.3317                  (X_U20.22)   -6.6635                      

(X_U20.23)   11.9500                  (X_U20.24)  -11.9500                      

(X_U20.25)  -33.3170                  (X_U20.26)-33.32E-06                      

(X_U20.32)     .1307                  (X_U20.33)   11.9500                      

(X_U20.34)  -11.9500                  (X_U20.40)     .1257                      

(X_U20.54)   -2.1317                  (X_U20.55)   13.4090                      

(X_U20.56)   13.4090                  (X_U20.59)     .1307                      

(X_U20.60)    -.5661                  (X_U20.61)    -.5660                      

(X_U20.62)     .1390                  (X_U20.63)   10.6600                      

(X_U20.64)  -10.6600                  (X_U20.65) 139.0E+03                      

(X_U20.66)     .1390                  (X_U20.67) 139.0E+03                      

(X_U20.68)    0.0000                  (X_U20.69)     .1390                      

(X_U20.70)     .8306                  (X_U20.71)    -.5594                      

(X_U20.72)     .1356                  (X_U20.73)    -.6311                      

(X_U20.74)    0.0000                  (X_U20.75)    0.0000                      

(X_U21.10)     .0050                  (X_U21.11)    2.1135                      

(X_U21.12)   -4.2170                  (X_U21.13)   11.9500                      

(X_U21.14)  -11.9500                  (X_U21.15)   21.1350                      

(X_U21.16) 21.14E-06                  (X_U21.20)   -6.6635                      

(X_U21.21)   -3.3317                  (X_U21.22)   -6.6635                      

(X_U21.23)   11.9500                  (X_U21.24)  -11.9500                      

(X_U21.25)  -33.3170                  (X_U21.26)-33.32E-06                      

(X_U21.32)    2.8091                  (X_U21.33)   11.9500                      

(X_U21.34)  -11.9500                  (X_U21.40)    2.8050                      

(X_U21.54)     .5472                  (X_U21.55)   13.4090                      

(X_U21.56)   13.4080                  (X_U21.59)    2.8100                      

(X_U21.60)    2.1124                  (X_U21.61)    2.1133                      

(X_U21.62)    2.8149                  (X_U21.63)   10.6600                      

(X_U21.64)  -10.6600                  (X_U21.65) 2.815E+06                      

(X_U21.66)    2.8149                  (X_U21.67) 2.815E+06                      

(X_U21.68)    0.0000                  (X_U21.69)    2.8149                      

(X_U21.70)    3.5091                  (X_U21.71)    2.1191                      

(X_U21.72)    2.8141                  (X_U21.73)    -.5925                      

(X_U21.74)    0.0000                  (X_U21.75)    0.0000                      

(IALFA_REF)     .1356                 (IBETA_REF)    2.8141                     

(VALFA_SQR)     .0050                 (VBETA_SQR)   -2.2221                     

(X_U13.100)    0.0000                 (X_U14.33x)   15.0000                     

(X_U14.550)  -14.2500                 (X_U15.100)    0.0000                     

(X_U16.33x)   15.0000                 (X_U16.550)  -14.2500                     

(X_U17.100)    0.0000                 (X_U18.33x)   15.0000                     

(X_U18.550)  -14.2500                 (X_U19.100)    0.0000                     

(X_U20.100)    0.0000                 (X_U21.100)    0.0000                     

(X_U14.553a)  -14.3800                (X_U16.553a)  -14.3800                    

(X_U18.553a)  -14.3800                (X_U14.nvsat)  -13.6300                   

(X_U16.nvsat)  -13.6300               (X_U18.nvsat)  -13.6300                   

(X_U14.vswitch)   13.2000             (X_U16.vswitch)   13.2000                 

(X_U18.vswitch)   13.2000             




    VOLTAGE SOURCE CURRENTS
    NAME         CURRENT

    V_Valfa     -1.600E-06
    V_Vbeta      3.140E-04
    V_V5        -4.523E-02
    V_V4        -4.558E-02
    V_V7         3.332E-04
    X_U17.VX1    9.729E-12
    X_U17.VX2    1.417E-11
    X_U17.VY1    1.174E-11
    X_U17.VY2    1.216E-11
    X_U17.VZ1    3.581E-11
    X_U17.VZ2    2.390E-11
    X_U17.VOOS  -4.986E-09
    X_U17.V1     1.066E-11
    X_U17.V2     1.066E-11
    X_U17.VNC    0.000E+00
    X_U17.VZC1  -5.774E-13
    X_U17.VZC2   4.775E-06
    X_U17.VSC1  -6.956E-13
    X_U17.VSC2  -6.964E-13
    X_U16.Vpvsat   0.000E+00
    X_U16.Vnvsat   0.000E+00
    X_U16.vr1   -9.971E-10
    X_U16.vr2   -9.971E-10
    X_U16.vr3   -2.000E-04
    X_U16.vr4   -2.000E-04
    X_U16.v1     1.364E-11
    X_U16.v2     1.364E-11
    X_U16.vh    -1.796E-03
    X_U16.vl    -1.795E-03
    X_U13.VX1    1.195E-11
    X_U13.VX2    1.196E-11
    X_U13.VY1    1.195E-11
    X_U13.VY2    1.196E-11
    X_U13.VZ1    3.585E-11
    X_U13.VZ2    2.390E-11
    X_U13.VOOS  -4.986E-09
    X_U13.V1     1.066E-11
    X_U13.V2     1.067E-11
    X_U13.VNC    0.000E+00
    X_U13.VZC1  -5.268E-13
    X_U13.VZC2   6.742E-07
    X_U13.VSC1  -6.959E-13
    X_U13.VSC2  -6.961E-13
    X_U15.VX1    7.226E-12
    X_U15.VX2    1.668E-11
    X_U15.VY1    1.667E-11
    X_U15.VY2    7.236E-12
    X_U15.VZ1    3.808E-11
    X_U15.VZ2    2.390E-11
    X_U15.VOOS  -4.983E-09
    X_U15.V1     1.289E-11
    X_U15.V2     8.428E-12
    X_U15.VNC    0.000E+00
    X_U15.VZC1   1.217E-04
    X_U15.VZC2  -6.612E-13
    X_U15.VSC1  -7.065E-13
    X_U15.VSC2  -6.855E-13
    X_U14.Vpvsat   0.000E+00
    X_U14.Vnvsat   0.000E+00
    X_U14.vr1   -9.964E-10
    X_U14.vr2   -9.977E-10
    X_U14.vr3   -2.000E-04
    X_U14.vr4   -2.000E-04
    X_U14.v1     1.364E-11
    X_U14.v2     1.364E-11
    X_U14.vh    -1.909E-03
    X_U14.vl    -1.685E-03
    X_U18.Vpvsat   0.000E+00
    X_U18.Vnvsat   0.000E+00
    X_U18.vr1   -9.971E-10
    X_U18.vr2   -9.970E-10
    X_U18.vr3   -2.000E-04
    X_U18.vr4   -2.000E-04
    X_U18.v1     1.364E-11
    X_U18.v2     1.364E-11
    X_U18.vh    -1.797E-03
    X_U18.vl    -1.794E-03
    X_U19.VX1    9.729E-12
    X_U19.VX2    1.417E-11
    X_U19.VY1    7.724E-12
    X_U19.VY2    1.618E-11
    X_U19.VZ1    3.491E-11
    X_U19.VZ2    2.390E-11
    X_U19.VOOS  -4.988E-09
    X_U19.V1     9.703E-12
    X_U19.V2     1.162E-11
    X_U19.VNC    0.000E+00
    X_U19.VZC1  -6.685E-13
    X_U19.VZC2   1.614E-04
    X_U19.VSC1  -6.821E-13
    X_U19.VSC2  -7.099E-13
    X_U21.VX1    1.617E-11
    X_U21.VX2    7.734E-12
    X_U21.VY1    1.861E-11
    X_U21.VY2    5.288E-12
    X_U21.VZ1    3.304E-11
    X_U21.VZ2    2.390E-11
    X_U21.VOOS  -4.990E-09
    X_U21.V1     7.846E-12
    X_U21.V2     1.348E-11
    X_U21.VNC    0.000E+00
    X_U21.VZC1  -5.935E-13
    X_U21.VZC2   8.877E-06
    X_U21.VSC1  -6.952E-13
    X_U21.VSC2  -6.968E-13
    X_U20.VX1    1.215E-11
    X_U20.VX2    1.175E-11
    X_U20.VY1    1.861E-11
    X_U20.VY2    5.288E-12
    X_U20.VZ1    3.572E-11
    X_U20.VZ2    2.390E-11
    X_U20.VOOS  -4.986E-09
    X_U20.V1     1.052E-11
    X_U20.V2     1.080E-11
    X_U20.VNC    0.000E+00
    X_U20.VZC1  -6.321E-13
    X_U20.VZC2   3.953E-05
    X_U20.VSC1  -6.926E-13
    X_U20.VSC2  -6.994E-13

    TOTAL POWER DISSIPATION   1.37E+00  WATTS



          JOB CONCLUDED

**** 09/23/15 10:14:01 ***** PSpice 16.6.0 (October 2012) ***** ID# 0 ********

 ** Profile: "Control-Temp"  [ C:\Documents and Settings\EGA\Escritorio\convertidor ac-dc-pspicefiles\control\temp.sim ] 


 ****     JOB STATISTICS SUMMARY


******************************************************************************



  License check-out time            =       20.43
  Total job time (using Solver 1)   =       12.24
