
**** 09/24/15 16:36:55 ***** PSpice 16.6.0 (October 2012) ***** ID# 0 ********

 ** Profile: "Control 2-Temp"  [ C:\Documents and Settings\EGA\Escritorio\Convertidor AC-DC-PSpiceFiles\Control 2\Temp.sim ] 


 ****     CIRCUIT DESCRIPTION


******************************************************************************




** Creating circuit file "Temp.cir" 
** WARNING: THIS AUTOMATICALLY GENERATED FILE MAY BE OVERWRITTEN BY SUBSEQUENT SIMULATIONS

*Libraries: 
* Profile Libraries :
* Local Libraries :
.LIB "E:/Hardware/OrCAD/Capture/PSpice/burr_brn.lib" 
* From [PSPICE NETLIST] section of E:\zOrCAD\cdssetup\OrCAD_PSpice/16.6.0/PSpice.ini file:
.lib "nom.lib" 

*Analysis directives: 
.TRAN  0 50ms 0 .02ms 
.OPTIONS ADVCONV
.PROBE64 V(alias(*)) I(alias(*)) W(alias(*)) D(alias(*)) NOISE(alias(*)) 
.INC "..\Control 2.net" 



**** INCLUDING "Control 2.net" ****
* source CONVERTIDOR AC-DC
V_Valfa         IALFA 0  
+SIN 0 5Vp 50Hz 0 0 0
V_Vbeta         IBETA 0  
+SIN 0 5Vp 50Hz 0 0 -90
V_V4         +VCC_CON 0 15V
V_V5         0 -VCC_CON 15V
V_Vbeta_ref         IBETA_REF 0  
+SIN 0 3Vp 50Hz 0 0 -90
V_Valfa_ref         IALFA_REF 0  
+SIN 0 3Vp 50Hz 0 0 0
R_R4         N25436 0  10k  
R_R3         IALFA_REF N25436  10k  
X_U22-A         N25436 N25412 +VCC_CON -VCC_CON N25424 OPA350
R_R11         IBETA_REF N25638  10k  
R_R7         N25460 N31425  1k  
R_R9         N25412 N25424  10k  
R_R8         IALFA N25412  10k  
R_R13         N25626 N25662  20k  
R_R12         N25638 0  10k  
X_U22-B         0 N25460 +VCC_CON -VCC_CON D_ALFA OPA350
R_R5         N25424 N25460  20k  
X_U23-B         0 N25662 +VCC_CON -VCC_CON D_BETA OPA350
R_R15         N25662 N31521  1k  
R_R17         N25614 N25626  10k  
X_U23-A         N25638 N25614 +VCC_CON -VCC_CON N25626 OPA350
R_R16         IBETA N25614  10k  
X_U25         N26909 D_A +VCC_CON -VCC_CON D_A OPA350
X_U24         0 N27097 +VCC_CON -VCC_CON N27085 OPA350
X_U26         0 N27145 +VCC_CON -VCC_CON D_B OPA350
X_U27         0 N27198 +VCC_CON -VCC_CON D_C OPA350
R_R113         D_ALFA N26909  3.65k  
R_R114         0 N26909  16.2k  
R_R115         D_ALFA N27145  29.4k  
R_R116         D_BETA N27097  12.0k  
R_R118         N27085 N27145  16.9k  
R_R119         N27145 D_B  12.0k  
R_R120         D_ALFA N27198  29.4k  
R_R121         D_BETA N27198  16.9k  
R_R122         N27198 D_C  12.0k  
R_R117         N27097 N27085  12.0k  
X_D1         N25460 N31044 MMSZ5231BT1
X_D2         D_ALFA N31044 MMSZ5231BT1
X_D3         N25662 N31080 MMSZ5231BT1
X_D4         D_BETA N31080 MMSZ5231BT1
C_C1         N31425 D_ALFA  100nF  
C_C2         N31521 D_BETA  100nF  
R_R123         N25460 D_ALFA  10MEG  

**** RESUMING Temp.cir ****
.END

**** 09/24/15 16:36:55 ***** PSpice 16.6.0 (October 2012) ***** ID# 0 ********

 ** Profile: "Control 2-Temp"  [ C:\Documents and Settings\EGA\Escritorio\Convertidor AC-DC-PSpiceFiles\Control 2\Temp.sim ] 


 ****     Diode MODEL PARAMETERS


******************************************************************************




               X_U22-A.dx      X_U22-B.dx      X_U23-B.dx      X_U23-A.dx      
          IS   10.000000E-15   10.000000E-15   10.000000E-15   10.000000E-15 
          RS    1               1               1               1            
         CJO  100.000000E-15  100.000000E-15  100.000000E-15  100.000000E-15 


               X_U25.dx        X_U24.dx        X_U26.dx        X_U27.dx        
          IS   10.000000E-15   10.000000E-15   10.000000E-15   10.000000E-15 
          RS    1               1               1               1            
         CJO  100.000000E-15  100.000000E-15  100.000000E-15  100.000000E-15 


               X_D1.FWD_DIO    X_D1.MD_REV     X_D1.MD_REV2    X_D2.FWD_DIO    
          IS    1.784150E-09    2.500000E-12    2.500000E-12    1.784150E-09 
           N    2.00311          .114452         .274444        2.00311      
          RS     .409                                            .409        
          TT   10.000000E-09                                   10.000000E-09 
         CJO  170.000000E-12                                  170.000000E-12 
          EG                     .1              .1                          
         XTI    1               0               0               1            


               X_D2.MD_REV     X_D2.MD_REV2    X_D3.FWD_DIO    X_D3.MD_REV     
          IS    2.500000E-12    2.500000E-12    1.784150E-09    2.500000E-12 
           N     .114452         .274444        2.00311          .114452     
          RS                                     .409                        
          TT                                   10.000000E-09                 
         CJO                                  170.000000E-12                 
          EG     .1              .1                              .1          
         XTI    0               0               1               0            


               X_D3.MD_REV2    X_D4.FWD_DIO    X_D4.MD_REV     X_D4.MD_REV2    
          IS    2.500000E-12    1.784150E-09    2.500000E-12    2.500000E-12 
           N     .274444        2.00311          .114452         .274444     
          RS                     .409                                        
          TT                   10.000000E-09                                 
         CJO                  170.000000E-12                                 
          EG     .1                              .1              .1          
         XTI    0               1               0               0            


**** 09/24/15 16:36:55 ***** PSpice 16.6.0 (October 2012) ***** ID# 0 ********

 ** Profile: "Control 2-Temp"  [ C:\Documents and Settings\EGA\Escritorio\Convertidor AC-DC-PSpiceFiles\Control 2\Temp.sim ] 


 ****     MOSFET MODEL PARAMETERS


******************************************************************************




               X_U22-A.nix     X_U22-A.nox     X_U22-A.pix     X_U22-A.pox     
               NMOS            NMOS            PMOS            PMOS            
       LEVEL    1               1               1               1            
           L  100.000000E-06  100.000000E-06  100.000000E-06  100.000000E-06 
           W  100.000000E-06  100.000000E-06  100.000000E-06  100.000000E-06 
         VTO     .75             .75            -.75            -.75         
          KP  205.500000E-06  195.000000E-06  205.500000E-06  195.000000E-06 
       GAMMA    0               0               0               0            
         PHI     .6              .6              .6              .6          
      LAMBDA    0               0               0               0            
          RD    1                .5             1                .5          
          RS    1                .5             1                .5          
          RG    1               1               1               1            
          RB    1               1               1               1            
          IS   10.000000E-15   10.000000E-15   10.000000E-15   10.000000E-15 
          JS    0               0               0               0            
          PB     .8              .8              .8              .8          
        PBSW     .8              .8              .8              .8          
         CBD  234.000000E-15  234.000000E-15  234.000000E-15  234.000000E-15 
         CBS  234.000000E-15  234.000000E-15  234.000000E-15  234.000000E-15 
          CJ    0               0               0               0            
        CJSW    0               0               0               0            
        CGSO    4.000000E-09   66.667000E-12    4.000000E-09   66.667000E-12 
        CGDO    4.000000E-09   66.667000E-12    4.000000E-09   66.667000E-12 
        CGBO   16.667000E-09  125.000000E-09   16.667000E-09  125.000000E-09 
         TOX    0               0               0               0            
          XJ    0               0               0               0            
       UCRIT   10.000000E+03   10.000000E+03   10.000000E+03   10.000000E+03 
      DIOMOD    1               1               1               1            
         VFB    0               0               0               0            
        LETA    0               0               0               0            
        WETA    0               0               0               0            
          U0    0               0               0               0            
        TEMP    0               0               0               0            
         VDD    5               5               5               5            
       XPART    0               0               0               0            


               X_U22-B.nix     X_U22-B.nox     X_U22-B.pix     X_U22-B.pox     
               NMOS            NMOS            PMOS            PMOS            
       LEVEL    1               1               1               1            
           L  100.000000E-06  100.000000E-06  100.000000E-06  100.000000E-06 
           W  100.000000E-06  100.000000E-06  100.000000E-06  100.000000E-06 
         VTO     .75             .75            -.75            -.75         
          KP  205.500000E-06  195.000000E-06  205.500000E-06  195.000000E-06 
       GAMMA    0               0               0               0            
         PHI     .6              .6              .6              .6          
      LAMBDA    0               0               0               0            
          RD    1                .5             1                .5          
          RS    1                .5             1                .5          
          RG    1               1               1               1            
          RB    1               1               1               1            
          IS   10.000000E-15   10.000000E-15   10.000000E-15   10.000000E-15 
          JS    0               0               0               0            
          PB     .8              .8              .8              .8          
        PBSW     .8              .8              .8              .8          
         CBD  234.000000E-15  234.000000E-15  234.000000E-15  234.000000E-15 
         CBS  234.000000E-15  234.000000E-15  234.000000E-15  234.000000E-15 
          CJ    0               0               0               0            
        CJSW    0               0               0               0            
        CGSO    4.000000E-09   66.667000E-12    4.000000E-09   66.667000E-12 
        CGDO    4.000000E-09   66.667000E-12    4.000000E-09   66.667000E-12 
        CGBO   16.667000E-09  125.000000E-09   16.667000E-09  125.000000E-09 
         TOX    0               0               0               0            
          XJ    0               0               0               0            
       UCRIT   10.000000E+03   10.000000E+03   10.000000E+03   10.000000E+03 
      DIOMOD    1               1               1               1            
         VFB    0               0               0               0            
        LETA    0               0               0               0            
        WETA    0               0               0               0            
          U0    0               0               0               0            
        TEMP    0               0               0               0            
         VDD    5               5               5               5            
       XPART    0               0               0               0            


               X_U23-B.nix     X_U23-B.nox     X_U23-B.pix     X_U23-B.pox     
               NMOS            NMOS            PMOS            PMOS            
       LEVEL    1               1               1               1            
           L  100.000000E-06  100.000000E-06  100.000000E-06  100.000000E-06 
           W  100.000000E-06  100.000000E-06  100.000000E-06  100.000000E-06 
         VTO     .75             .75            -.75            -.75         
          KP  205.500000E-06  195.000000E-06  205.500000E-06  195.000000E-06 
       GAMMA    0               0               0               0            
         PHI     .6              .6              .6              .6          
      LAMBDA    0               0               0               0            
          RD    1                .5             1                .5          
          RS    1                .5             1                .5          
          RG    1               1               1               1            
          RB    1               1               1               1            
          IS   10.000000E-15   10.000000E-15   10.000000E-15   10.000000E-15 
          JS    0               0               0               0            
          PB     .8              .8              .8              .8          
        PBSW     .8              .8              .8              .8          
         CBD  234.000000E-15  234.000000E-15  234.000000E-15  234.000000E-15 
         CBS  234.000000E-15  234.000000E-15  234.000000E-15  234.000000E-15 
          CJ    0               0               0               0            
        CJSW    0               0               0               0            
        CGSO    4.000000E-09   66.667000E-12    4.000000E-09   66.667000E-12 
        CGDO    4.000000E-09   66.667000E-12    4.000000E-09   66.667000E-12 
        CGBO   16.667000E-09  125.000000E-09   16.667000E-09  125.000000E-09 
         TOX    0               0               0               0            
          XJ    0               0               0               0            
       UCRIT   10.000000E+03   10.000000E+03   10.000000E+03   10.000000E+03 
      DIOMOD    1               1               1               1            
         VFB    0               0               0               0            
        LETA    0               0               0               0            
        WETA    0               0               0               0            
          U0    0               0               0               0            
        TEMP    0               0               0               0            
         VDD    5               5               5               5            
       XPART    0               0               0               0            


               X_U23-A.nix     X_U23-A.nox     X_U23-A.pix     X_U23-A.pox     
               NMOS            NMOS            PMOS            PMOS            
       LEVEL    1               1               1               1            
           L  100.000000E-06  100.000000E-06  100.000000E-06  100.000000E-06 
           W  100.000000E-06  100.000000E-06  100.000000E-06  100.000000E-06 
         VTO     .75             .75            -.75            -.75         
          KP  205.500000E-06  195.000000E-06  205.500000E-06  195.000000E-06 
       GAMMA    0               0               0               0            
         PHI     .6              .6              .6              .6          
      LAMBDA    0               0               0               0            
          RD    1                .5             1                .5          
          RS    1                .5             1                .5          
          RG    1               1               1               1            
          RB    1               1               1               1            
          IS   10.000000E-15   10.000000E-15   10.000000E-15   10.000000E-15 
          JS    0               0               0               0            
          PB     .8              .8              .8              .8          
        PBSW     .8              .8              .8              .8          
         CBD  234.000000E-15  234.000000E-15  234.000000E-15  234.000000E-15 
         CBS  234.000000E-15  234.000000E-15  234.000000E-15  234.000000E-15 
          CJ    0               0               0               0            
        CJSW    0               0               0               0            
        CGSO    4.000000E-09   66.667000E-12    4.000000E-09   66.667000E-12 
        CGDO    4.000000E-09   66.667000E-12    4.000000E-09   66.667000E-12 
        CGBO   16.667000E-09  125.000000E-09   16.667000E-09  125.000000E-09 
         TOX    0               0               0               0            
          XJ    0               0               0               0            
       UCRIT   10.000000E+03   10.000000E+03   10.000000E+03   10.000000E+03 
      DIOMOD    1               1               1               1            
         VFB    0               0               0               0            
        LETA    0               0               0               0            
        WETA    0               0               0               0            
          U0    0               0               0               0            
        TEMP    0               0               0               0            
         VDD    5               5               5               5            
       XPART    0               0               0               0            


               X_U25.nix       X_U25.nox       X_U25.pix       X_U25.pox       
               NMOS            NMOS            PMOS            PMOS            
       LEVEL    1               1               1               1            
           L  100.000000E-06  100.000000E-06  100.000000E-06  100.000000E-06 
           W  100.000000E-06  100.000000E-06  100.000000E-06  100.000000E-06 
         VTO     .75             .75            -.75            -.75         
          KP  205.500000E-06  195.000000E-06  205.500000E-06  195.000000E-06 
       GAMMA    0               0               0               0            
         PHI     .6              .6              .6              .6          
      LAMBDA    0               0               0               0            
          RD    1                .5             1                .5          
          RS    1                .5             1                .5          
          RG    1               1               1               1            
          RB    1               1               1               1            
          IS   10.000000E-15   10.000000E-15   10.000000E-15   10.000000E-15 
          JS    0               0               0               0            
          PB     .8              .8              .8              .8          
        PBSW     .8              .8              .8              .8          
         CBD  234.000000E-15  234.000000E-15  234.000000E-15  234.000000E-15 
         CBS  234.000000E-15  234.000000E-15  234.000000E-15  234.000000E-15 
          CJ    0               0               0               0            
        CJSW    0               0               0               0            
        CGSO    4.000000E-09   66.667000E-12    4.000000E-09   66.667000E-12 
        CGDO    4.000000E-09   66.667000E-12    4.000000E-09   66.667000E-12 
        CGBO   16.667000E-09  125.000000E-09   16.667000E-09  125.000000E-09 
         TOX    0               0               0               0            
          XJ    0               0               0               0            
       UCRIT   10.000000E+03   10.000000E+03   10.000000E+03   10.000000E+03 
      DIOMOD    1               1               1               1            
         VFB    0               0               0               0            
        LETA    0               0               0               0            
        WETA    0               0               0               0            
          U0    0               0               0               0            
        TEMP    0               0               0               0            
         VDD    5               5               5               5            
       XPART    0               0               0               0            


               X_U24.nix       X_U24.nox       X_U24.pix       X_U24.pox       
               NMOS            NMOS            PMOS            PMOS            
       LEVEL    1               1               1               1            
           L  100.000000E-06  100.000000E-06  100.000000E-06  100.000000E-06 
           W  100.000000E-06  100.000000E-06  100.000000E-06  100.000000E-06 
         VTO     .75             .75            -.75            -.75         
          KP  205.500000E-06  195.000000E-06  205.500000E-06  195.000000E-06 
       GAMMA    0               0               0               0            
         PHI     .6              .6              .6              .6          
      LAMBDA    0               0               0               0            
          RD    1                .5             1                .5          
          RS    1                .5             1                .5          
          RG    1               1               1               1            
          RB    1               1               1               1            
          IS   10.000000E-15   10.000000E-15   10.000000E-15   10.000000E-15 
          JS    0               0               0               0            
          PB     .8              .8              .8              .8          
        PBSW     .8              .8              .8              .8          
         CBD  234.000000E-15  234.000000E-15  234.000000E-15  234.000000E-15 
         CBS  234.000000E-15  234.000000E-15  234.000000E-15  234.000000E-15 
          CJ    0               0               0               0            
        CJSW    0               0               0               0            
        CGSO    4.000000E-09   66.667000E-12    4.000000E-09   66.667000E-12 
        CGDO    4.000000E-09   66.667000E-12    4.000000E-09   66.667000E-12 
        CGBO   16.667000E-09  125.000000E-09   16.667000E-09  125.000000E-09 
         TOX    0               0               0               0            
          XJ    0               0               0               0            
       UCRIT   10.000000E+03   10.000000E+03   10.000000E+03   10.000000E+03 
      DIOMOD    1               1               1               1            
         VFB    0               0               0               0            
        LETA    0               0               0               0            
        WETA    0               0               0               0            
          U0    0               0               0               0            
        TEMP    0               0               0               0            
         VDD    5               5               5               5            
       XPART    0               0               0               0            


               X_U26.nix       X_U26.nox       X_U26.pix       X_U26.pox       
               NMOS            NMOS            PMOS            PMOS            
       LEVEL    1               1               1               1            
           L  100.000000E-06  100.000000E-06  100.000000E-06  100.000000E-06 
           W  100.000000E-06  100.000000E-06  100.000000E-06  100.000000E-06 
         VTO     .75             .75            -.75            -.75         
          KP  205.500000E-06  195.000000E-06  205.500000E-06  195.000000E-06 
       GAMMA    0               0               0               0            
         PHI     .6              .6              .6              .6          
      LAMBDA    0               0               0               0            
          RD    1                .5             1                .5          
          RS    1                .5             1                .5          
          RG    1               1               1               1            
          RB    1               1               1               1            
          IS   10.000000E-15   10.000000E-15   10.000000E-15   10.000000E-15 
          JS    0               0               0               0            
          PB     .8              .8              .8              .8          
        PBSW     .8              .8              .8              .8          
         CBD  234.000000E-15  234.000000E-15  234.000000E-15  234.000000E-15 
         CBS  234.000000E-15  234.000000E-15  234.000000E-15  234.000000E-15 
          CJ    0               0               0               0            
        CJSW    0               0               0               0            
        CGSO    4.000000E-09   66.667000E-12    4.000000E-09   66.667000E-12 
        CGDO    4.000000E-09   66.667000E-12    4.000000E-09   66.667000E-12 
        CGBO   16.667000E-09  125.000000E-09   16.667000E-09  125.000000E-09 
         TOX    0               0               0               0            
          XJ    0               0               0               0            
       UCRIT   10.000000E+03   10.000000E+03   10.000000E+03   10.000000E+03 
      DIOMOD    1               1               1               1            
         VFB    0               0               0               0            
        LETA    0               0               0               0            
        WETA    0               0               0               0            
          U0    0               0               0               0            
        TEMP    0               0               0               0            
         VDD    5               5               5               5            
       XPART    0               0               0               0            


               X_U27.nix       X_U27.nox       X_U27.pix       X_U27.pox       
               NMOS            NMOS            PMOS            PMOS            
       LEVEL    1               1               1               1            
           L  100.000000E-06  100.000000E-06  100.000000E-06  100.000000E-06 
           W  100.000000E-06  100.000000E-06  100.000000E-06  100.000000E-06 
         VTO     .75             .75            -.75            -.75         
          KP  205.500000E-06  195.000000E-06  205.500000E-06  195.000000E-06 
       GAMMA    0               0               0               0            
         PHI     .6              .6              .6              .6          
      LAMBDA    0               0               0               0            
          RD    1                .5             1                .5          
          RS    1                .5             1                .5          
          RG    1               1               1               1            
          RB    1               1               1               1            
          IS   10.000000E-15   10.000000E-15   10.000000E-15   10.000000E-15 
          JS    0               0               0               0            
          PB     .8              .8              .8              .8          
        PBSW     .8              .8              .8              .8          
         CBD  234.000000E-15  234.000000E-15  234.000000E-15  234.000000E-15 
         CBS  234.000000E-15  234.000000E-15  234.000000E-15  234.000000E-15 
          CJ    0               0               0               0            
        CJSW    0               0               0               0            
        CGSO    4.000000E-09   66.667000E-12    4.000000E-09   66.667000E-12 
        CGDO    4.000000E-09   66.667000E-12    4.000000E-09   66.667000E-12 
        CGBO   16.667000E-09  125.000000E-09   16.667000E-09  125.000000E-09 
         TOX    0               0               0               0            
          XJ    0               0               0               0            
       UCRIT   10.000000E+03   10.000000E+03   10.000000E+03   10.000000E+03 
      DIOMOD    1               1               1               1            
         VFB    0               0               0               0            
        LETA    0               0               0               0            
        WETA    0               0               0               0            
          U0    0               0               0               0            
        TEMP    0               0               0               0            
         VDD    5               5               5               5            
       XPART    0               0               0               0            


**** 09/24/15 16:36:55 ***** PSpice 16.6.0 (October 2012) ***** ID# 0 ********

 ** Profile: "Control 2-Temp"  [ C:\Documents and Settings\EGA\Escritorio\Convertidor AC-DC-PSpiceFiles\Control 2\Temp.sim ] 


 ****     Resistor MODEL PARAMETERS


******************************************************************************




               X_D1.MDR        X_D1.MDRBRK_SIg X_D2.MDR        X_D2.MDRBRK_SIg 
           R    1               1               1               1            
         TC1                  235.532000E-06                  235.532000E-06 


               X_D3.MDR        X_D3.MDRBRK_SIg X_D4.MDR        X_D4.MDRBRK_SIg 
           R    1               1               1               1            
         TC1                  235.532000E-06                  235.532000E-06 


Starting pseudo-transient algorithm.

**** 09/24/15 16:36:55 ***** PSpice 16.6.0 (October 2012) ***** ID# 0 ********

 ** Profile: "Control 2-Temp"  [ C:\Documents and Settings\EGA\Escritorio\Convertidor AC-DC-PSpiceFiles\Control 2\Temp.sim ] 


 ****     INITIAL TRANSIENT SOLUTION       TEMPERATURE =   27.000 DEG C


******************************************************************************



 NODE   VOLTAGE     NODE   VOLTAGE     NODE   VOLTAGE     NODE   VOLTAGE


(  D_A)-1.073E-06  (  D_B)-2.963E-06  (  D_C) 4.041E-06  (IALFA)    0.0000      

(IBETA)    0.0000  (D_ALFA)-1.311E-06 (D_BETA)-4.929E-06 (N25412) 5.407E-09     

(N25424)-3.302E-12 (N25436) 5.408E-09 (N25460) 61.55E-15 (N25614)-9.295E-09     

(N25626)-2.297E-12 (N25638)-9.294E-09 (N25662) 416.0E-15 (N26909)-1.071E-06     

(N27085) 4.935E-06 (N27097)-853.3E-15 (N27145) 4.794E-12 (N27198)-4.612E-12     

(N31044) 114.3E-06 (N31080) 112.5E-06 (N31425) 51.40E-12 (N31521)-511.4E-12     

(X_D1.3)-12.03E-12 (X_D1.4)    -.0748 (X_D1.5)   -4.9801 (X_D1.6)    4.9802     

(X_D2.3)-1.311E-06 (X_D2.4)    -.0748 (X_D2.5)   -4.9801 (X_D2.6)    4.9802     

(X_D3.3)-11.67E-12 (X_D3.4)    -.0748 (X_D3.5)   -4.9801 (X_D3.6)    4.9802     

(X_D4.3)-4.929E-06 (X_D4.4)    -.0749 (X_D4.5)   -4.9801 (X_D4.6)    4.9802     

(X_U24.4)   17.0000                   (X_U24.5)     .8595                       

(X_U24.7)    0.0000                   (X_U24.8)  -16.0330                       

(X_U24.9)  -16.0330                   (X_U25.4)   17.0000                       

(X_U25.5)     .8595                   (X_U25.7)-1.071E-06                       

(X_U25.8)  -16.0330                   (X_U25.9)  -16.0330                       

(X_U26.4)   17.0000                   (X_U26.5)     .8595                       

(X_U26.7)    0.0000                   (X_U26.8)  -16.0330                       

(X_U26.9)  -16.0330                   (X_U27.4)   17.0000                       

(X_U27.5)     .8595                   (X_U27.7)    0.0000                       

(X_U27.8)  -16.0330                   (X_U27.9)  -16.0330                       

(+VCC_CON)   15.0000                  (-VCC_CON)  -15.0000                      

(X_U24.21)-3.850E-09                  (X_U24.22)   13.6300                      

(X_U24.23)  -13.6300                  (X_U24.24)-426.7E-15                      

(X_U24.25)-7.820E-15                  (X_U24.2a)-7.629E-12                      

(X_U24.33)   17.0000                  (X_U24.38)  -14.2110                      

(X_U24.39)   14.2110                  (X_U24.4x)   15.0000                      

(X_U24.66)    -.7502                  (X_U24.6c) 4.935E-06                      

(X_U24.6h)     .0240                  (X_U24.6l)    -.0240                      

(X_U24.7a)-9.470E-12                  (X_U24.8x)  -14.0330                      

(X_U24.98)    0.0000                  (X_U24.9x)  -14.0330                      

(X_U25.21)-2.775E-12                  (X_U25.22)   13.6300                      

(X_U25.23)  -13.6300                  (X_U25.24)-1.072E-06                      

(X_U25.25)-10.61E-09                  (X_U25.2a)-1.073E-06                      

(X_U25.33)   17.0000                  (X_U25.38)  -14.2110                      

(X_U25.39)   14.2110                  (X_U25.4x)   15.0000                      

(X_U25.66)    -.7502                  (X_U25.6c)-1.073E-06                      

(X_U25.6h)     .0240                  (X_U25.6l)    -.0240                      

(X_U25.7a)-1.071E-06                  (X_U25.8x)  -14.0330                      

(X_U25.98)    0.0000                  (X_U25.9x)  -14.0330                      

(X_U26.21) 1.352E-09                  (X_U26.22)   13.6300                      

(X_U26.23)  -13.6300                  (X_U26.24) 2.397E-12                      

(X_U26.25) 26.90E-15                  (X_U26.2a) 13.98E-12                      

(X_U26.33)   17.0000                  (X_U26.38)  -14.2110                      

(X_U26.39)   14.2110                  (X_U26.4x)   15.0000                      

(X_U26.66)    -.7502                  (X_U26.6c)-2.963E-06                      

(X_U26.6h)     .0240                  (X_U26.6l)    -.0240                      

(X_U26.7a) 10.82E-12                  (X_U26.8x)  -14.0330                      

(X_U26.98)    0.0000                  (X_U26.9x)  -14.0330                      

(X_U27.21)-1.843E-09                  (X_U27.22)   13.6300                      

(X_U27.23)  -13.6300                  (X_U27.24)-2.306E-12                      

(X_U27.25)-25.36E-15                  (X_U27.2a)-6.151E-12                      

(X_U27.33)   17.0000                  (X_U27.38)  -14.2110                      

(X_U27.39)   14.2110                  (X_U27.4x)   15.0000                      

(X_U27.66)    -.7502                  (X_U27.6c) 4.041E-06                      

(X_U27.6h)     .0240                  (X_U27.6l)    -.0240                      

(X_U27.7a)-4.008E-12                  (X_U27.8x)  -14.0330                      

(X_U27.98)    0.0000                  (X_U27.9x)  -14.0330                      

(IALFA_REF)    0.0000                 (IBETA_REF)    0.0000                     

(X_U22-A.4)   17.0000                 (X_U22-A.5)     .8595                     

(X_U22-A.7) 5.408E-09                 (X_U22-A.8)  -16.0330                     

(X_U22-A.9)  -16.0330                 (X_U22-B.4)   17.0000                     

(X_U22-B.5)     .8595                 (X_U22-B.7)    0.0000                     

(X_U22-B.8)  -16.0330                 (X_U22-B.9)  -16.0330                     

(X_U23-A.4)   17.0000                 (X_U23-A.5)     .8595                     

(X_U23-A.7)-9.294E-09                 (X_U23-A.8)  -16.0330                     

(X_U23-A.9)  -16.0330                 (X_U23-B.4)   17.0000                     

(X_U23-B.5)     .8595                 (X_U23-B.7)    0.0000                     

(X_U23-B.8)  -16.0330                 (X_U23-B.9)  -16.0330                     

(X_U24.33x)   15.0000                 (X_U24.550)  -14.2500                     

(X_U25.33x)   15.0000                 (X_U25.550)  -14.2500                     

(X_U26.33x)   15.0000                 (X_U26.550)  -14.2500                     

(X_U27.33x)   15.0000                 (X_U27.550)  -14.2500                     

(X_U22-A.21) 5.624E-12                (X_U22-A.22)   13.6300                    

(X_U22-A.23)  -13.6300                (X_U22-A.24) 5.408E-09                    

(X_U22-A.25) 115.3E-12                (X_U22-A.2a) 6.198E-09                    

(X_U22-A.33)   17.0000                (X_U22-A.38)  -14.2110                    

(X_U22-A.39)   14.2110                (X_U22-A.4x)   15.0000                    

(X_U22-A.66)    -.7502                (X_U22-A.6c)-3.179E-12                    

(X_U22-A.6h)     .0240                (X_U22-A.6l)    -.0240                    

(X_U22-A.7a) 6.199E-09                (X_U22-A.8x)  -14.0330                    

(X_U22-A.98)    0.0000                (X_U22-A.9x)  -14.0330                    

(X_U22-B.21) 844.9E-12                (X_U22-B.22)   13.6300                    

(X_U22-B.23)  -13.6300                (X_U22-B.24) 30.78E-15                    

(X_U22-B.25) 300.2E-15                (X_U22-B.2a) 5.737E-12                    

(X_U22-B.33)   17.0000                (X_U22-B.38)  -14.2110                    

(X_U22-B.39)   14.2110                (X_U22-B.4x)   15.0000                    

(X_U22-B.66)    -.7502                (X_U22-B.6c)-1.311E-06                    

(X_U22-B.6h)     .0240                (X_U22-B.6l)    -.0240                    

(X_U22-B.7a) 6.618E-12                (X_U22-B.8x)  -14.0330                    

(X_U22-B.98)    0.0000                (X_U22-B.9x)  -14.0330                    

(X_U23-A.21)-2.266E-12                (X_U23-A.22)   13.6300                    

(X_U23-A.23)  -13.6300                (X_U23-A.24)-9.295E-09                    

(X_U23-A.25)-56.17E-12                (X_U23-A.2a)-9.975E-09                    

(X_U23-A.33)   17.0000                (X_U23-A.38)  -14.2110                    

(X_U23-A.39)   14.2110                (X_U23-A.4x)   15.0000                    

(X_U23-A.66)    -.7502                (X_U23-A.6c)-2.221E-12                    

(X_U23-A.6h)     .0240                (X_U23-A.6l)    -.0240                    

(X_U23-A.7a)-9.974E-09                (X_U23-A.8x)  -14.0330                    

(X_U23-A.98)    0.0000                (X_U23-A.9x)  -14.0330                    

(X_U23-B.21) 3.843E-09                (X_U23-B.22)   13.6300                    

(X_U23-B.23)  -13.6300                (X_U23-B.24) 208.0E-15                    

(X_U23-B.25) 6.698E-15                (X_U23-B.2a)-1.751E-12                    

(X_U23-B.33)   17.0000                (X_U23-B.38)  -14.2110                    

(X_U23-B.39)   14.2110                (X_U23-B.4x)   15.0000                    

(X_U23-B.66)    -.7502                (X_U23-B.6c)-4.929E-06                    

(X_U23-B.6h)     .0240                (X_U23-B.6l)    -.0240                    

(X_U23-B.7a) 201.4E-15                (X_U23-B.8x)  -14.0330                    

(X_U23-B.98)    0.0000                (X_U23-B.9x)  -14.0330                    

(X_U24.553a)  -14.3800                (X_U25.553a)  -14.3800                    

(X_U26.553a)  -14.3800                (X_U27.553a)  -14.3800                    

(X_U22-A.33x)   15.0000               (X_U22-A.550)  -14.2500                   

(X_U22-B.33x)   15.0000               (X_U22-B.550)  -14.2500                   

(X_U23-A.33x)   15.0000               (X_U23-A.550)  -14.2500                   

(X_U23-B.33x)   15.0000               (X_U23-B.550)  -14.2500                   

(X_U24.nvsat)  -13.6300               (X_U25.nvsat)  -13.6300                   

(X_U26.nvsat)  -13.6300               (X_U27.nvsat)  -13.6300                   

(X_U22-A.553a)  -14.3800              (X_U22-B.553a)  -14.3800                  

(X_U23-A.553a)  -14.3800              (X_U23-B.553a)  -14.3800                  

(X_U22-A.nvsat)  -13.6300             (X_U22-B.nvsat)  -13.6300                 

(X_U23-A.nvsat)  -13.6300             (X_U23-B.nvsat)  -13.6300                 

(X_U24.vswitch)   13.2000             (X_U25.vswitch)   13.2000                 

(X_U26.vswitch)   13.2000             (X_U27.vswitch)   13.2000                 

(X_U22-A.vswitch)   13.2000           (X_U22-B.vswitch)   13.2000               

(X_U23-A.vswitch)   13.2000           (X_U23-B.vswitch)   13.2000           




    VOLTAGE SOURCE CURRENTS
    NAME         CURRENT

    V_Valfa      5.407E-13
    V_Vbeta     -9.295E-13
    V_V4        -5.493E-02
    V_V5        -5.493E-02
    V_Vbeta_ref  -9.294E-13
    V_Valfa_ref   5.408E-13
    X_U22-A.Vpvsat   2.274E-13
    X_U22-A.Vnvsat  -1.364E-12
    X_U22-A.vr1  -9.984E-10
    X_U22-A.vr2  -9.984E-10
    X_U22-A.vr3  -2.000E-04
    X_U22-A.vr4  -2.000E-04
    X_U22-A.v1   1.364E-11
    X_U22-A.v2   1.364E-11
    X_U22-A.vh  -1.796E-03
    X_U22-A.vl  -1.796E-03
    X_U22-B.Vpvsat   3.411E-13
    X_U22-B.Vnvsat   0.000E+00
    X_U22-B.vr1  -9.974E-10
    X_U22-B.vr2  -9.974E-10
    X_U22-B.vr3  -2.000E-04
    X_U22-B.vr4  -2.000E-04
    X_U22-B.v1   1.364E-11
    X_U22-B.v2   1.364E-11
    X_U22-B.vh  -1.796E-03
    X_U22-B.vl  -1.796E-03
    X_U23-B.Vpvsat   3.411E-13
    X_U23-B.Vnvsat   0.000E+00
    X_U23-B.vr1  -9.974E-10
    X_U23-B.vr2  -9.974E-10
    X_U23-B.vr3  -2.000E-04
    X_U23-B.vr4  -2.000E-04
    X_U23-B.v1   1.364E-11
    X_U23-B.v2   1.364E-11
    X_U23-B.vh  -1.796E-03
    X_U23-B.vl  -1.796E-03
    X_U23-A.Vpvsat   2.274E-13
    X_U23-A.Vnvsat   1.364E-12
    X_U23-A.vr1  -9.961E-10
    X_U23-A.vr2  -9.961E-10
    X_U23-A.vr3  -2.000E-04
    X_U23-A.vr4  -2.000E-04
    X_U23-A.v1   1.364E-11
    X_U23-A.v2   1.364E-11
    X_U23-A.vh  -1.796E-03
    X_U23-A.vl  -1.796E-03
    X_U25.Vpvsat   2.842E-13
    X_U25.Vnvsat  -2.217E-12
    X_U25.vr1   -9.947E-10
    X_U25.vr2   -9.948E-10
    X_U25.vr3   -2.000E-04
    X_U25.vr4   -2.000E-04
    X_U25.v1     1.545E-11
    X_U25.v2     1.183E-11
    X_U25.vh    -1.796E-03
    X_U25.vl    -1.796E-03
    X_U24.Vpvsat  -2.274E-13
    X_U24.Vnvsat  -2.842E-13
    X_U24.vr1   -9.970E-10
    X_U24.vr2   -9.970E-10
    X_U24.vr3   -2.000E-04
    X_U24.vr4   -2.000E-04
    X_U24.v1     1.364E-11
    X_U24.v2     1.364E-11
    X_U24.vh    -1.796E-03
    X_U24.vl    -1.796E-03
    X_U26.Vpvsat   3.013E-12
    X_U26.Vnvsat   2.274E-13
    X_U26.vr1   -9.992E-10
    X_U26.vr2   -9.992E-10
    X_U26.vr3   -2.000E-04
    X_U26.vr4   -2.000E-04
    X_U26.v1     1.364E-11
    X_U26.v2     1.364E-11
    X_U26.vh    -1.796E-03
    X_U26.vl    -1.796E-03
    X_U27.Vpvsat   2.842E-13
    X_U27.Vnvsat   0.000E+00
    X_U27.vr1   -9.973E-10
    X_U27.vr2   -9.973E-10
    X_U27.vr3   -2.000E-04
    X_U27.vr4   -2.000E-04
    X_U27.v1     1.364E-11
    X_U27.v2     1.364E-11
    X_U27.vh    -1.796E-03
    X_U27.vl    -1.796E-03

    TOTAL POWER DISSIPATION   1.65E+00  WATTS



          JOB CONCLUDED

**** 09/24/15 16:36:55 ***** PSpice 16.6.0 (October 2012) ***** ID# 0 ********

 ** Profile: "Control 2-Temp"  [ C:\Documents and Settings\EGA\Escritorio\Convertidor AC-DC-PSpiceFiles\Control 2\Temp.sim ] 


 ****     JOB STATISTICS SUMMARY


******************************************************************************



  License check-out time            =       20.49
  Total job time (using Solver 1)   =       16.65
